@<TRIPOS>MOLECULE
~{N}-[2-[2-(dimethylamino)ethyl-methyl-amino]-4-methoxy-5-[[4-(1-methylindol-3-yl)pyrimidin-2-yl]amino]phenyl]prop-2-enamide
   70    73     0     0     0
SMALL
USER_CHARGES

@<TRIPOS>ATOM
      1 C1        -11.2397    8.2942    3.0775 C.3       1 OSI         0.2082
      2 N1        -10.3716    7.4871    3.9075 N.pl3     1 OSI        -0.4905
      3 C2         -9.7322    6.3538    3.4818 C.2       1 OSI         0.0617
      4 C3         -9.0005    5.8589    4.5366 C.2       1 OSI        -0.2376
      5 C4         -9.2027    6.7245    5.6479 C.ar      1 OSI        -0.0629
      6 C5         -8.7321    6.7433    6.9759 C.ar      1 OSI        -0.0875
      7 C6         -9.1424    7.7725    7.8310 C.ar      1 OSI        -0.1522
      8 C7        -10.0056    8.7705    7.3830 C.ar      1 OSI        -0.1170
      9 C8        -10.4853    8.7726    6.0700 C.ar      1 OSI        -0.1386
     10 C9        -10.0667    7.7375    5.2264 C.ar      1 OSI         0.0765
     11 C10        -8.2053    4.6694    4.4284 C.ar      1 OSI         0.5705
     12 N2         -8.0637    3.9524    5.5626 N.ar      1 OSI        -0.7523
     13 C11        -7.3151    2.8396    5.4416 C.ar      1 OSI         0.8794
     14 N3         -6.7109    2.3878    4.3261 N.ar      1 OSI        -0.7276
     15 C12        -6.8941    3.1527    3.2299 C.ar      1 OSI         0.4618
     16 C13        -7.6382    4.3147    3.2214 C.ar      1 OSI        -0.4065
     17 N4         -7.1454    2.0639    6.6092 N.pl3     1 OSI        -0.7307
     18 C14        -7.6128    2.2136    7.9282 C.ar      1 OSI         0.1854
     19 C15        -6.8701    1.7262    9.0036 C.ar      1 OSI         0.0085
     20 C16        -7.3450    1.8804   10.3061 C.ar      1 OSI        -0.1088
     21 C17        -8.5626    2.5218   10.5331 C.ar      1 OSI         0.0455
     22 C18        -9.3054    3.0091    9.4577 C.ar      1 OSI         0.1089
     23 C19        -8.8304    2.8550    8.1552 C.ar      1 OSI        -0.1692
     24 N5        -10.5273    3.6565    9.6615 N.am      1 OSI        -0.4594
     25 C20       -11.3860    4.1981    8.6974 C.2       1 OSI         0.6607
     26 O1        -11.2253    4.2064    7.4827 O.2       1 OSI        -0.5885
     27 C21       -12.5967    4.8065    9.3216 C.2       1 OSI        -0.2404
     28 C22       -13.5385    5.3771    8.5638 C.2       1 OSI        -0.1318
     29 N6         -9.0240    2.6667   11.8606 N.pl3     1 OSI        -0.7102
     30 C23        -9.8566    1.6454   12.4612 C.3       1 OSI         0.2005
     31 C24        -8.6577    3.8316   12.6392 C.3       1 OSI         0.2105
     32 C25        -7.3730    3.6110   13.4127 C.3       1 OSI         0.1398
     33 N7         -7.0029    4.7637   14.1884 N.3       1 OSI        -0.7456
     34 C26        -6.3474    5.7829   13.3541 C.3       1 OSI         0.1612
     35 C27        -6.1152    4.3969   15.3029 C.3       1 OSI         0.1612
     36 O2         -5.6781    1.0964    8.8026 O.3       1 OSI        -0.3487
     37 C28        -4.5083    1.9117    8.7953 C.3       1 OSI         0.1129
     38 H1        -10.6261    9.0543    2.5868 H         1 OSI         0.0514
     39 H2        -11.7273    7.6578    2.3338 H         1 OSI         0.0514
     40 H3        -12.0039    8.7637    3.7032 H         1 OSI         0.0514
     41 H4         -9.8536    5.9989    2.4662 H         1 OSI         0.1770
     42 H5         -8.0590    5.9728    7.3411 H         1 OSI         0.1380
     43 H6         -8.7828    7.7922    8.8564 H         1 OSI         0.1297
     44 H7        -10.3114    9.5603    8.0644 H         1 OSI         0.1297
     45 H8        -11.1571    9.5522    5.7266 H         1 OSI         0.1315
     46 H9         -6.4097    2.7934    2.3281 H         1 OSI         0.0298
     47 H10        -7.7593    4.8995    2.3179 H         1 OSI         0.1589
     48 H11        -6.5736    1.2374    6.4668 H         1 OSI         0.4660
     49 H12        -6.7620    1.4983   11.1409 H         1 OSI         0.1439
     50 H13        -9.4089    3.2354    7.3157 H         1 OSI         0.1989
     51 H14       -10.8323    3.7458   10.6372 H         1 OSI         0.3330
     52 H15       -12.7080    4.7834   10.4002 H         1 OSI         0.1312
     53 H16       -14.4312    5.8289    8.9817 H         1 OSI         0.1300
     54 H17       -13.4262    5.4000    7.4849 H         1 OSI         0.1300
     55 H18       -10.1094    1.9339   13.4809 H         1 OSI         0.0302
     56 H19        -9.3202    0.6971   12.4773 H         1 OSI         0.0302
     57 H20       -10.7721    1.5304   11.8816 H         1 OSI         0.0302
     58 H21        -8.5730    4.6662   11.9406 H         1 OSI         0.0544
     59 H22        -9.4874    4.0229   13.3222 H         1 OSI         0.0544
     60 H23        -7.4977    2.7792   14.1128 H         1 OSI         0.0349
     61 H24        -6.5360    3.3807   12.7456 H         1 OSI         0.0349
     62 H25        -6.0903    6.6252   13.9825 H         1 OSI         0.0304
     63 H26        -7.0368    6.0871   12.5774 H         1 OSI         0.0304
     64 H27        -5.4564    5.3500   12.9186 H         1 OSI         0.0304
     65 H28        -5.8675    5.2953   15.8523 H         1 OSI         0.0304
     66 H29        -5.2209    3.9440   14.8955 H         1 OSI         0.0304
     67 H30        -6.6361    3.6950   15.9407 H         1 OSI         0.0304
     68 H31        -3.6367    1.2804    8.6257 H         1 OSI         0.0398
     69 H32        -4.4279    2.4262    9.7524 H         1 OSI         0.0398
     70 H33        -4.5998    2.6398    7.9902 H         1 OSI         0.0398
@<TRIPOS>BOND
     1    1    2 1
     2    2   10 1
     3    2    3 1
     4    3    4 2
     5    4    5 1
     6    5   10 ar
     7    5    6 ar
     8    6    7 ar
     9    7    8 ar
    10    8    9 ar
    11    9   10 ar
    12    4   11 1
    13   11   16 ar
    14   11   12 ar
    15   12   13 ar
    16   13   14 ar
    17   14   15 ar
    18   15   16 ar
    19   13   17 1
    20   17   18 1
    21   18   23 ar
    22   18   19 ar
    23   19   20 ar
    24   20   21 ar
    25   21   22 ar
    26   22   23 ar
    27   22   24 1
    28   24   25 am
    29   25   26 2
    30   25   27 1
    31   27   28 2
    32   21   29 1
    33   29   30 1
    34   29   31 1
    35   31   32 1
    36   32   33 1
    37   33   34 1
    38   33   35 1
    39   19   36 1
    40   36   37 1
    41    1   38 1
    42    1   39 1
    43    1   40 1
    44    3   41 1
    45    6   42 1
    46    7   43 1
    47    8   44 1
    48    9   45 1
    49   15   46 1
    50   16   47 1
    51   17   48 1
    52   20   49 1
    53   23   50 1
    54   24   51 1
    55   27   52 1
    56   28   53 1
    57   28   54 1
    58   30   55 1
    59   30   56 1
    60   30   57 1
    61   31   58 1
    62   31   59 1
    63   32   60 1
    64   32   61 1
    65   34   62 1
    66   34   63 1
    67   34   64 1
    68   35   65 1
    69   35   66 1
    70   35   67 1
    71   37   68 1
    72   37   69 1
    73   37   70 1
