YY3
                    3D
 Structure written by MMmdl.
 71 74  0  0  1  0            999 V2000
   -3.2190  -49.7970   11.0900 C   0  0  0  0  0  0
   -2.4360  -49.0430   12.0780 N   0  3  0  0  0  0
   -3.1940  -48.2140   13.0480 C   0  0  0  0  0  0
   -1.8790  -50.1420   12.9170 C   0  0  0  0  0  0
   -0.3450  -50.2720   12.7500 C   0  0  0  0  0  0
    0.2540  -49.4220   13.8270 N   0  0  0  0  0  0
    1.2860  -48.4860   13.3050 C   0  0  0  0  0  0
    1.8270  -50.9880   14.7920 C   0  0  0  0  0  0
    2.2570  -51.7560   15.8830 C   0  0  0  0  0  0
    3.3840  -52.5630   15.7970 O   0  0  0  0  0  0
    4.2560  -52.2140   14.7430 C   0  0  0  0  0  0
    0.6890  -50.2020   14.9230 C   0  0  0  0  0  0
   -0.0870  -50.1800   16.1140 C   0  0  0  0  0  0
   -1.1890  -49.3830   16.2610 N   0  0  0  0  0  0
   -2.2310  -49.6780   17.0600 C   0  0  0  0  0  0
   -2.2740  -50.7450   17.6610 O   0  0  0  0  0  0
   -3.3970  -48.6770   17.2180 C   0  0  0  0  0  0
   -4.5960  -48.9250   18.0680 C   0  0  0  0  0  0
    0.3770  -50.9640   17.2040 C   0  0  0  0  0  0
    1.5390  -51.7450   17.1020 C   0  0  0  0  0  0
    2.0390  -52.5820   18.1300 N   0  0  0  0  0  0
    1.6980  -52.5930   19.4850 C   0  0  0  0  0  0
    0.9690  -51.6510   20.0690 N   0  0  0  0  0  0
    2.1650  -53.6150   20.2090 N   0  0  0  0  0  0
    1.8870  -53.7180   21.5680 C   0  0  0  0  0  0
    1.1370  -52.7430   22.1890 C   0  0  0  0  0  0
    0.6750  -51.6860   21.3960 C   0  0  0  0  0  0
   -0.1460  -50.6020   22.0120 C   0  0  0  0  0  0
   -0.4110  -49.3940   21.4760 C   0  0  0  0  0  0
   -0.0560  -48.8180   20.3070 C   0  0  0  0  0  0
   -0.4670  -47.5300   19.9650 C   0  0  0  0  0  0
   -1.2660  -46.8340   20.8660 C   0  0  0  0  0  0
   -1.6160  -47.4370   22.0710 C   0  0  0  0  0  0
   -1.1720  -48.7260   22.3530 C   0  0  0  0  0  0
   -1.3740  -49.5080   23.4040 N   0  0  0  0  0  0
   -2.1580  -49.1370   24.5860 C   0  0  0  0  0  0
   -0.7510  -50.6610   23.2050 C   0  0  0  0  0  0
   -3.6975  -49.0966   10.3896 H   0  0  0  0  0  0
   -3.9922  -50.3848   11.6063 H   0  0  0  0  0  0
   -2.5536  -50.4741   10.5343 H   0  0  0  0  0  0
   -2.4909  -47.7069   13.7251 H   0  0  0  0  0  0
   -3.8670  -48.8578   13.6333 H   0  0  0  0  0  0
   -3.7859  -47.4629   12.5045 H   0  0  0  0  0  0
   -2.0951  -49.9400   13.9765 H   0  0  0  0  0  0
   -2.3404  -51.0967   12.6242 H   0  0  0  0  0  0
   -0.0519  -51.3262   12.8633 H   0  0  0  0  0  0
   -0.0534  -49.9157   11.7510 H   0  0  0  0  0  0
    1.6917  -47.8880   14.1343 H   0  0  0  0  0  0
    0.8311  -47.8175   12.5592 H   0  0  0  0  0  0
    2.0981  -49.0605   12.8355 H   0  0  0  0  0  0
    2.3740  -51.0070   13.8610 H   0  0  0  0  0  0
    5.1196  -52.8953   14.7408 H   0  0  0  0  0  0
    4.6048  -51.1802   14.8828 H   0  0  0  0  0  0
    3.7229  -52.2947   13.7842 H   0  0  0  0  0  0
   -1.2604  -48.4355   15.7067 H   0  0  0  0  0  0
   -3.3059  -47.7354   16.6567 H   0  0  0  0  0  0
   -5.3898  -48.1664   18.1340 H   0  0  0  0  0  0
   -4.6871  -49.8666   18.6293 H   0  0  0  0  0  0
   -0.1760  -50.9590   18.1310 H   0  0  0  0  0  0
    2.7972  -53.3446   17.8984 H   0  0  0  0  0  0
    2.2580  -54.5590   22.1350 H   0  0  0  0  0  0
    0.9150  -52.7920   23.2450 H   0  0  0  0  0  0
    0.5640  -49.3710   19.6170 H   0  0  0  0  0  0
   -0.1730  -47.0850   19.0260 H   0  0  0  0  0  0
   -1.6110  -45.8370   20.6330 H   0  0  0  0  0  0
   -2.2300  -46.9070   22.7840 H   0  0  0  0  0  0
   -2.1605  -49.9726   25.3014 H   0  0  0  0  0  0
   -3.1911  -48.9096   24.2842 H   0  0  0  0  0  0
   -1.7107  -48.2504   25.0592 H   0  0  0  0  0  0
   -0.7340  -51.5000   23.8850 H   0  0  0  0  0  0
   -1.7762  -48.3563   11.5275 H   0  0  0  0  0  0
  1  2  1  0  0  0
  1 38  1  0  0  0
  1 39  1  0  0  0
  1 40  1  0  0  0
  2  4  1  0  0  0
  2  3  1  0  0  0
  2 71  1  0  0  0
  3 41  1  0  0  0
  3 42  1  0  0  0
  3 43  1  0  0  0
  4 44  1  0  0  0
  4 45  1  0  0  0
  4  5  1  0  0  0
  5  6  1  0  0  0
  5 46  1  0  0  0
  5 47  1  0  0  0
  6 12  1  0  0  0
  6  7  1  0  0  0
  7 48  1  0  0  0
  7 49  1  0  0  0
  7 50  1  0  0  0
  8 12  2  0  0  0
  8  9  1  0  0  0
  8 51  1  0  0  0
  9 20  2  0  0  0
  9 10  1  0  0  0
 10 11  1  0  0  0
 11 52  1  0  0  0
 11 53  1  0  0  0
 11 54  1  0  0  0
 12 13  1  0  0  0
 13 14  1  0  0  0
 13 19  2  0  0  0
 14 15  1  0  0  0
 14 55  1  0  0  0
 15 17  1  0  0  0
 15 16  2  0  0  0
 17 18  2  0  0  0
 17 56  1  0  0  0
 18 57  1  0  0  0
 18 58  1  0  0  0
 19 59  1  0  0  0
 19 20  1  0  0  0
 20 21  1  0  0  0
 21 22  1  0  0  0
 21 60  1  0  0  0
 22 23  2  0  0  0
 22 24  1  0  0  0
 23 27  1  0  0  0
 24 25  2  0  0  0
 25 26  1  0  0  0
 25 61  1  0  0  0
 26 62  1  0  0  0
 26 27  2  0  0  0
 27 28  1  0  0  0
 28 37  2  0  0  0
 28 29  1  0  0  0
 29 34  2  0  0  0
 29 30  1  0  0  0
 30 63  1  0  0  0
 30 31  2  0  0  0
 31 32  1  0  0  0
 31 64  1  0  0  0
 32 33  2  0  0  0
 32 65  1  0  0  0
 33 34  1  0  0  0
 33 66  1  0  0  0
 34 35  1  0  0  0
 35 36  1  0  0  0
 35 37  1  0  0  0
 36 67  1  0  0  0
 36 68  1  0  0  0
 36 69  1  0  0  0
 37 70  1  0  0  0
M  CHG  1   2   1
M  END
> <s_m_source_file>
/Users/choderaj/github/choderalab/mcce-charges/mcce-charges.jchodera/epik_inhibitors/output/Osimertinib/Osimertinib-input.mol2

> <i_m_source_file_index>
1

> <r_lp_tautomer_probability>
0.999999812000036

> <r_epik_Ionization_Penalty>
  0.0101

> <r_epik_Ionization_Penalty_Charging>
  0.0095

> <r_epik_Ionization_Penalty_Neutral>
  0.0005

> <r_epik_State_Penalty>
  0.0161

> <i_epik_Tot_Q>
1

$$$$
YY3
                    3D
 Structure written by MMmdl.
 70 73  0  0  1  0            999 V2000
   -3.2190  -49.7970   11.0900 C   0  0  0  0  0  0
   -2.4360  -49.0430   12.0780 N   0  0  0  0  0  0
   -3.1940  -48.2140   13.0480 C   0  0  0  0  0  0
   -1.8790  -50.1420   12.9170 C   0  0  0  0  0  0
   -0.3450  -50.2720   12.7500 C   0  0  0  0  0  0
    0.2540  -49.4220   13.8270 N   0  0  0  0  0  0
    1.2860  -48.4860   13.3050 C   0  0  0  0  0  0
    1.8270  -50.9880   14.7920 C   0  0  0  0  0  0
    2.2570  -51.7560   15.8830 C   0  0  0  0  0  0
    3.3840  -52.5630   15.7970 O   0  0  0  0  0  0
    4.2560  -52.2140   14.7430 C   0  0  0  0  0  0
    0.6890  -50.2020   14.9230 C   0  0  0  0  0  0
   -0.0870  -50.1800   16.1140 C   0  0  0  0  0  0
   -1.1890  -49.3830   16.2610 N   0  0  0  0  0  0
   -2.2310  -49.6780   17.0600 C   0  0  0  0  0  0
   -2.2740  -50.7450   17.6610 O   0  0  0  0  0  0
   -3.3970  -48.6770   17.2180 C   0  0  0  0  0  0
   -4.5960  -48.9250   18.0680 C   0  0  0  0  0  0
    0.3770  -50.9640   17.2040 C   0  0  0  0  0  0
    1.5390  -51.7450   17.1020 C   0  0  0  0  0  0
    2.0390  -52.5820   18.1300 N   0  0  0  0  0  0
    1.6980  -52.5930   19.4850 C   0  0  0  0  0  0
    0.9690  -51.6510   20.0690 N   0  0  0  0  0  0
    2.1650  -53.6150   20.2090 N   0  0  0  0  0  0
    1.8870  -53.7180   21.5680 C   0  0  0  0  0  0
    1.1370  -52.7430   22.1890 C   0  0  0  0  0  0
    0.6750  -51.6860   21.3960 C   0  0  0  0  0  0
   -0.1460  -50.6020   22.0120 C   0  0  0  0  0  0
   -0.4110  -49.3940   21.4760 C   0  0  0  0  0  0
   -0.0560  -48.8180   20.3070 C   0  0  0  0  0  0
   -0.4670  -47.5300   19.9650 C   0  0  0  0  0  0
   -1.2660  -46.8340   20.8660 C   0  0  0  0  0  0
   -1.6160  -47.4370   22.0710 C   0  0  0  0  0  0
   -1.1720  -48.7260   22.3530 C   0  0  0  0  0  0
   -1.3740  -49.5080   23.4040 N   0  0  0  0  0  0
   -2.1580  -49.1370   24.5860 C   0  0  0  0  0  0
   -0.7510  -50.6610   23.2050 C   0  0  0  0  0  0
   -3.6975  -49.0966   10.3896 H   0  0  0  0  0  0
   -3.9922  -50.3848   11.6063 H   0  0  0  0  0  0
   -2.5536  -50.4741   10.5343 H   0  0  0  0  0  0
   -2.4909  -47.7069   13.7251 H   0  0  0  0  0  0
   -3.8670  -48.8578   13.6333 H   0  0  0  0  0  0
   -3.7859  -47.4629   12.5045 H   0  0  0  0  0  0
   -2.0951  -49.9400   13.9765 H   0  0  0  0  0  0
   -2.3404  -51.0967   12.6242 H   0  0  0  0  0  0
   -0.0519  -51.3262   12.8633 H   0  0  0  0  0  0
   -0.0534  -49.9157   11.7510 H   0  0  0  0  0  0
    1.6917  -47.8880   14.1343 H   0  0  0  0  0  0
    0.8311  -47.8175   12.5592 H   0  0  0  0  0  0
    2.0981  -49.0605   12.8355 H   0  0  0  0  0  0
    2.3740  -51.0070   13.8610 H   0  0  0  0  0  0
    5.1196  -52.8953   14.7408 H   0  0  0  0  0  0
    4.6048  -51.1802   14.8828 H   0  0  0  0  0  0
    3.7229  -52.2947   13.7842 H   0  0  0  0  0  0
   -1.2604  -48.4355   15.7067 H   0  0  0  0  0  0
   -3.3059  -47.7354   16.6567 H   0  0  0  0  0  0
   -5.3898  -48.1664   18.1340 H   0  0  0  0  0  0
   -4.6871  -49.8666   18.6293 H   0  0  0  0  0  0
   -0.1760  -50.9590   18.1310 H   0  0  0  0  0  0
    2.7972  -53.3446   17.8984 H   0  0  0  0  0  0
    2.2580  -54.5590   22.1350 H   0  0  0  0  0  0
    0.9150  -52.7920   23.2450 H   0  0  0  0  0  0
    0.5640  -49.3710   19.6170 H   0  0  0  0  0  0
   -0.1730  -47.0850   19.0260 H   0  0  0  0  0  0
   -1.6110  -45.8370   20.6330 H   0  0  0  0  0  0
   -2.2300  -46.9070   22.7840 H   0  0  0  0  0  0
   -2.1605  -49.9726   25.3014 H   0  0  0  0  0  0
   -3.1911  -48.9096   24.2842 H   0  0  0  0  0  0
   -1.7107  -48.2504   25.0592 H   0  0  0  0  0  0
   -0.7340  -51.5000   23.8850 H   0  0  0  0  0  0
  1  2  1  0  0  0
  1 38  1  0  0  0
  1 39  1  0  0  0
  1 40  1  0  0  0
  2  4  1  0  0  0
  2  3  1  0  0  0
  3 41  1  0  0  0
  3 42  1  0  0  0
  3 43  1  0  0  0
  4 44  1  0  0  0
  4 45  1  0  0  0
  4  5  1  0  0  0
  5  6  1  0  0  0
  5 46  1  0  0  0
  5 47  1  0  0  0
  6 12  1  0  0  0
  6  7  1  0  0  0
  7 48  1  0  0  0
  7 49  1  0  0  0
  7 50  1  0  0  0
  8 12  2  0  0  0
  8  9  1  0  0  0
  8 51  1  0  0  0
  9 20  2  0  0  0
  9 10  1  0  0  0
 10 11  1  0  0  0
 11 52  1  0  0  0
 11 53  1  0  0  0
 11 54  1  0  0  0
 12 13  1  0  0  0
 13 14  1  0  0  0
 13 19  2  0  0  0
 14 15  1  0  0  0
 14 55  1  0  0  0
 15 17  1  0  0  0
 15 16  2  0  0  0
 17 18  2  0  0  0
 17 56  1  0  0  0
 18 57  1  0  0  0
 18 58  1  0  0  0
 19 59  1  0  0  0
 19 20  1  0  0  0
 20 21  1  0  0  0
 21 22  1  0  0  0
 21 60  1  0  0  0
 22 23  2  0  0  0
 22 24  1  0  0  0
 23 27  1  0  0  0
 24 25  2  0  0  0
 25 26  1  0  0  0
 25 61  1  0  0  0
 26 62  1  0  0  0
 26 27  2  0  0  0
 27 28  1  0  0  0
 28 37  2  0  0  0
 28 29  1  0  0  0
 29 34  2  0  0  0
 29 30  1  0  0  0
 30 63  1  0  0  0
 30 31  2  0  0  0
 31 32  1  0  0  0
 31 64  1  0  0  0
 32 33  2  0  0  0
 32 65  1  0  0  0
 33 34  1  0  0  0
 33 66  1  0  0  0
 34 35  1  0  0  0
 35 36  1  0  0  0
 35 37  1  0  0  0
 36 67  1  0  0  0
 36 68  1  0  0  0
 36 69  1  0  0  0
 37 70  1  0  0  0
M  END
> <s_m_source_file>
/Users/choderaj/github/choderalab/mcce-charges/mcce-charges.jchodera/epik_inhibitors/output/Osimertinib/Osimertinib-input.mol2

> <i_m_source_file_index>
1

> <r_lp_tautomer_probability>
0.999999812000036

> <r_epik_Ionization_Penalty>
  2.4966

> <r_epik_Ionization_Penalty_Charging>
  0.0000

> <r_epik_Ionization_Penalty_Neutral>
  2.4966

> <r_epik_State_Penalty>
  2.2992

> <i_epik_Tot_Q>
0

$$$$
YY3
                    3D
 Structure written by MMmdl.
 71 74  0  0  1  0            999 V2000
   -3.2190  -49.7970   11.0900 C   0  0  0  0  0  0
   -2.4360  -49.0430   12.0780 N   0  0  0  0  0  0
   -3.1940  -48.2140   13.0480 C   0  0  0  0  0  0
   -1.8790  -50.1420   12.9170 C   0  0  0  0  0  0
   -0.3450  -50.2720   12.7500 C   0  0  0  0  0  0
    0.2540  -49.4220   13.8270 N   0  3  2  0  0  0
    1.2860  -48.4860   13.3050 C   0  0  0  0  0  0
    1.8270  -50.9880   14.7920 C   0  0  0  0  0  0
    2.2570  -51.7560   15.8830 C   0  0  0  0  0  0
    3.3840  -52.5630   15.7970 O   0  0  0  0  0  0
    4.2560  -52.2140   14.7430 C   0  0  0  0  0  0
    0.6890  -50.2020   14.9230 C   0  0  0  0  0  0
   -0.0870  -50.1800   16.1140 C   0  0  0  0  0  0
   -1.1890  -49.3830   16.2610 N   0  0  0  0  0  0
   -2.2310  -49.6780   17.0600 C   0  0  0  0  0  0
   -2.2740  -50.7450   17.6610 O   0  0  0  0  0  0
   -3.3970  -48.6770   17.2180 C   0  0  0  0  0  0
   -4.5960  -48.9250   18.0680 C   0  0  0  0  0  0
    0.3770  -50.9640   17.2040 C   0  0  0  0  0  0
    1.5390  -51.7450   17.1020 C   0  0  0  0  0  0
    2.0390  -52.5820   18.1300 N   0  0  0  0  0  0
    1.6980  -52.5930   19.4850 C   0  0  0  0  0  0
    0.9690  -51.6510   20.0690 N   0  0  0  0  0  0
    2.1650  -53.6150   20.2090 N   0  0  0  0  0  0
    1.8870  -53.7180   21.5680 C   0  0  0  0  0  0
    1.1370  -52.7430   22.1890 C   0  0  0  0  0  0
    0.6750  -51.6860   21.3960 C   0  0  0  0  0  0
   -0.1460  -50.6020   22.0120 C   0  0  0  0  0  0
   -0.4110  -49.3940   21.4760 C   0  0  0  0  0  0
   -0.0560  -48.8180   20.3070 C   0  0  0  0  0  0
   -0.4670  -47.5300   19.9650 C   0  0  0  0  0  0
   -1.2660  -46.8340   20.8660 C   0  0  0  0  0  0
   -1.6160  -47.4370   22.0710 C   0  0  0  0  0  0
   -1.1720  -48.7260   22.3530 C   0  0  0  0  0  0
   -1.3740  -49.5080   23.4040 N   0  0  0  0  0  0
   -2.1580  -49.1370   24.5860 C   0  0  0  0  0  0
   -0.7510  -50.6610   23.2050 C   0  0  0  0  0  0
   -3.6975  -49.0966   10.3896 H   0  0  0  0  0  0
   -3.9922  -50.3848   11.6063 H   0  0  0  0  0  0
   -2.5536  -50.4741   10.5343 H   0  0  0  0  0  0
   -2.4909  -47.7069   13.7251 H   0  0  0  0  0  0
   -3.8670  -48.8578   13.6333 H   0  0  0  0  0  0
   -3.7859  -47.4629   12.5045 H   0  0  0  0  0  0
   -2.0951  -49.9400   13.9765 H   0  0  0  0  0  0
   -2.3404  -51.0967   12.6242 H   0  0  0  0  0  0
   -0.0519  -51.3262   12.8633 H   0  0  0  0  0  0
   -0.0534  -49.9157   11.7510 H   0  0  0  0  0  0
    1.6917  -47.8880   14.1343 H   0  0  0  0  0  0
    0.8311  -47.8175   12.5592 H   0  0  0  0  0  0
    2.0981  -49.0605   12.8355 H   0  0  0  0  0  0
    2.3740  -51.0070   13.8610 H   0  0  0  0  0  0
    5.1196  -52.8953   14.7408 H   0  0  0  0  0  0
    4.6048  -51.1802   14.8828 H   0  0  0  0  0  0
    3.7229  -52.2947   13.7842 H   0  0  0  0  0  0
   -1.2604  -48.4355   15.7067 H   0  0  0  0  0  0
   -3.3059  -47.7354   16.6567 H   0  0  0  0  0  0
   -5.3898  -48.1664   18.1340 H   0  0  0  0  0  0
   -4.6871  -49.8666   18.6293 H   0  0  0  0  0  0
   -0.1760  -50.9590   18.1310 H   0  0  0  0  0  0
    2.7972  -53.3446   17.8984 H   0  0  0  0  0  0
    2.2580  -54.5590   22.1350 H   0  0  0  0  0  0
    0.9150  -52.7920   23.2450 H   0  0  0  0  0  0
    0.5640  -49.3710   19.6170 H   0  0  0  0  0  0
   -0.1730  -47.0850   19.0260 H   0  0  0  0  0  0
   -1.6110  -45.8370   20.6330 H   0  0  0  0  0  0
   -2.2300  -46.9070   22.7840 H   0  0  0  0  0  0
   -2.1605  -49.9726   25.3014 H   0  0  0  0  0  0
   -3.1911  -48.9096   24.2842 H   0  0  0  0  0  0
   -1.7107  -48.2504   25.0592 H   0  0  0  0  0  0
   -0.7340  -51.5000   23.8850 H   0  0  0  0  0  0
   -0.5287  -48.7962   14.2806 H   0  0  0  0  0  0
  1  2  1  0  0  0
  1 38  1  0  0  0
  1 39  1  0  0  0
  1 40  1  0  0  0
  2  4  1  0  0  0
  2  3  1  0  0  0
  3 41  1  0  0  0
  3 42  1  0  0  0
  3 43  1  0  0  0
  4 44  1  0  0  0
  4 45  1  0  0  0
  4  5  1  0  0  0
  5  6  1  0  0  0
  5 46  1  0  0  0
  5 47  1  0  0  0
  6 12  1  0  0  0
  6  7  1  0  0  0
  6 71  1  0  0  0
  7 48  1  0  0  0
  7 49  1  0  0  0
  7 50  1  0  0  0
  8 12  2  0  0  0
  8  9  1  0  0  0
  8 51  1  0  0  0
  9 20  2  0  0  0
  9 10  1  0  0  0
 10 11  1  0  0  0
 11 52  1  0  0  0
 11 53  1  0  0  0
 11 54  1  0  0  0
 12 13  1  0  0  0
 13 14  1  0  0  0
 13 19  2  0  0  0
 14 15  1  0  0  0
 14 55  1  0  0  0
 15 17  1  0  0  0
 15 16  2  0  0  0
 17 18  2  0  0  0
 17 56  1  0  0  0
 18 57  1  0  0  0
 18 58  1  0  0  0
 19 59  1  0  0  0
 19 20  1  0  0  0
 20 21  1  0  0  0
 21 22  1  0  0  0
 21 60  1  0  0  0
 22 23  2  0  0  0
 22 24  1  0  0  0
 23 27  1  0  0  0
 24 25  2  0  0  0
 25 26  1  0  0  0
 25 61  1  0  0  0
 26 62  1  0  0  0
 26 27  2  0  0  0
 27 28  1  0  0  0
 28 37  2  0  0  0
 28 29  1  0  0  0
 29 34  2  0  0  0
 29 30  1  0  0  0
 30 63  1  0  0  0
 30 31  2  0  0  0
 31 32  1  0  0  0
 31 64  1  0  0  0
 32 33  2  0  0  0
 32 65  1  0  0  0
 33 34  1  0  0  0
 33 66  1  0  0  0
 34 35  1  0  0  0
 35 36  1  0  0  0
 35 37  1  0  0  0
 36 67  1  0  0  0
 36 68  1  0  0  0
 36 69  1  0  0  0
 37 70  1  0  0  0
M  CHG  1   6   1
M  END
> <s_m_source_file>
/Users/choderaj/github/choderalab/mcce-charges/mcce-charges.jchodera/epik_inhibitors/output/Osimertinib/Osimertinib-input.mol2

> <i_m_source_file_index>
1

> <r_epik_Ionization_Penalty>
  1.5583

> <r_epik_Ionization_Penalty_Charging>
  1.5456

> <r_epik_Ionization_Penalty_Neutral>
  0.0127

> <r_epik_State_Penalty>
  3.3096

> <i_epik_Tot_Q>
1

$$$$
YY3
                    3D
 Structure written by MMmdl.
 71 74  0  0  1  0            999 V2000
   -3.2190  -49.7970   11.0900 C   0  0  0  0  0  0
   -2.4360  -49.0430   12.0780 N   0  3  0  0  0  0
   -3.1940  -48.2140   13.0480 C   0  0  0  0  0  0
   -1.8790  -50.1420   12.9170 C   0  0  0  0  0  0
   -0.3450  -50.2720   12.7500 C   0  0  0  0  0  0
    0.2540  -49.4220   13.8270 N   0  0  0  0  0  0
    1.2860  -48.4860   13.3050 C   0  0  0  0  0  0
    1.8270  -50.9880   14.7920 C   0  0  0  0  0  0
    2.2570  -51.7560   15.8830 C   0  0  0  0  0  0
    3.3840  -52.5630   15.7970 O   0  0  0  0  0  0
    4.2560  -52.2140   14.7430 C   0  0  0  0  0  0
    0.6890  -50.2020   14.9230 C   0  0  0  0  0  0
   -0.0870  -50.1800   16.1140 C   0  0  0  0  0  0
   -1.1890  -49.3830   16.2610 N   0  5  0  0  0  0
   -2.2310  -49.6780   17.0600 C   0  0  0  0  0  0
   -2.2740  -50.7450   17.6610 O   0  3  0  0  0  0
   -3.3970  -48.6770   17.2180 C   0  0  0  0  0  0
   -4.5960  -48.9250   18.0680 C   0  0  0  0  0  0
    0.3770  -50.9640   17.2040 C   0  0  0  0  0  0
    1.5390  -51.7450   17.1020 C   0  0  0  0  0  0
    2.0390  -52.5820   18.1300 N   0  0  0  0  0  0
    1.6980  -52.5930   19.4850 C   0  0  0  0  0  0
    0.9690  -51.6510   20.0690 N   0  0  0  0  0  0
    2.1650  -53.6150   20.2090 N   0  0  0  0  0  0
    1.8870  -53.7180   21.5680 C   0  0  0  0  0  0
    1.1370  -52.7430   22.1890 C   0  0  0  0  0  0
    0.6750  -51.6860   21.3960 C   0  0  0  0  0  0
   -0.1460  -50.6020   22.0120 C   0  0  0  0  0  0
   -0.4110  -49.3940   21.4760 C   0  0  0  0  0  0
   -0.0560  -48.8180   20.3070 C   0  0  0  0  0  0
   -0.4670  -47.5300   19.9650 C   0  0  0  0  0  0
   -1.2660  -46.8340   20.8660 C   0  0  0  0  0  0
   -1.6160  -47.4370   22.0710 C   0  0  0  0  0  0
   -1.1720  -48.7260   22.3530 C   0  0  0  0  0  0
   -1.3740  -49.5080   23.4040 N   0  0  0  0  0  0
   -2.1580  -49.1370   24.5860 C   0  0  0  0  0  0
   -0.7510  -50.6610   23.2050 C   0  0  0  0  0  0
   -3.6975  -49.0966   10.3896 H   0  0  0  0  0  0
   -3.9922  -50.3848   11.6063 H   0  0  0  0  0  0
   -2.5536  -50.4741   10.5343 H   0  0  0  0  0  0
   -2.4909  -47.7069   13.7251 H   0  0  0  0  0  0
   -3.8670  -48.8578   13.6333 H   0  0  0  0  0  0
   -3.7859  -47.4629   12.5045 H   0  0  0  0  0  0
   -2.0951  -49.9400   13.9765 H   0  0  0  0  0  0
   -2.3404  -51.0967   12.6242 H   0  0  0  0  0  0
   -0.0519  -51.3262   12.8633 H   0  0  0  0  0  0
   -0.0534  -49.9157   11.7510 H   0  0  0  0  0  0
    1.6917  -47.8880   14.1343 H   0  0  0  0  0  0
    0.8311  -47.8175   12.5592 H   0  0  0  0  0  0
    2.0981  -49.0605   12.8355 H   0  0  0  0  0  0
    2.3740  -51.0070   13.8610 H   0  0  0  0  0  0
    5.1196  -52.8953   14.7408 H   0  0  0  0  0  0
    4.6048  -51.1802   14.8828 H   0  0  0  0  0  0
    3.7229  -52.2947   13.7842 H   0  0  0  0  0  0
   -3.3059  -47.7354   16.6567 H   0  0  0  0  0  0
   -5.3898  -48.1664   18.1340 H   0  0  0  0  0  0
   -4.6871  -49.8666   18.6293 H   0  0  0  0  0  0
   -0.1760  -50.9590   18.1310 H   0  0  0  0  0  0
    2.7972  -53.3446   17.8984 H   0  0  0  0  0  0
    2.2580  -54.5590   22.1350 H   0  0  0  0  0  0
    0.9150  -52.7920   23.2450 H   0  0  0  0  0  0
    0.5640  -49.3710   19.6170 H   0  0  0  0  0  0
   -0.1730  -47.0850   19.0260 H   0  0  0  0  0  0
   -1.6110  -45.8370   20.6330 H   0  0  0  0  0  0
   -2.2300  -46.9070   22.7840 H   0  0  0  0  0  0
   -2.1605  -49.9726   25.3014 H   0  0  0  0  0  0
   -3.1911  -48.9096   24.2842 H   0  0  0  0  0  0
   -1.7107  -48.2504   25.0592 H   0  0  0  0  0  0
   -0.7340  -51.5000   23.8850 H   0  0  0  0  0  0
   -1.7762  -48.3563   11.5275 H   0  0  0  0  0  0
   -3.1305  -50.9757   18.3115 H   0  0  0  0  0  0
  1  2  1  0  0  0
  1 38  1  0  0  0
  1 39  1  0  0  0
  1 40  1  0  0  0
  2  4  1  0  0  0
  2  3  1  0  0  0
  2 70  1  0  0  0
  3 41  1  0  0  0
  3 42  1  0  0  0
  3 43  1  0  0  0
  4 44  1  0  0  0
  4 45  1  0  0  0
  4  5  1  0  0  0
  5  6  1  0  0  0
  5 46  1  0  0  0
  5 47  1  0  0  0
  6 12  1  0  0  0
  6  7  1  0  0  0
  7 48  1  0  0  0
  7 49  1  0  0  0
  7 50  1  0  0  0
  8 12  2  0  0  0
  8  9  1  0  0  0
  8 51  1  0  0  0
  9 20  2  0  0  0
  9 10  1  0  0  0
 10 11  1  0  0  0
 11 52  1  0  0  0
 11 53  1  0  0  0
 11 54  1  0  0  0
 12 13  1  0  0  0
 13 14  1  0  0  0
 13 19  2  0  0  0
 14 15  1  0  0  0
 15 17  1  0  0  0
 15 16  2  0  0  0
 16 71  1  0  0  0
 17 18  2  0  0  0
 17 55  1  0  0  0
 18 56  1  0  0  0
 18 57  1  0  0  0
 19 58  1  0  0  0
 19 20  1  0  0  0
 20 21  1  0  0  0
 21 22  1  0  0  0
 21 59  1  0  0  0
 22 23  2  0  0  0
 22 24  1  0  0  0
 23 27  1  0  0  0
 24 25  2  0  0  0
 25 26  1  0  0  0
 25 60  1  0  0  0
 26 61  1  0  0  0
 26 27  2  0  0  0
 27 28  1  0  0  0
 28 37  2  0  0  0
 28 29  1  0  0  0
 29 34  2  0  0  0
 29 30  1  0  0  0
 30 62  1  0  0  0
 30 31  2  0  0  0
 31 32  1  0  0  0
 31 63  1  0  0  0
 32 33  2  0  0  0
 32 64  1  0  0  0
 33 34  1  0  0  0
 33 65  1  0  0  0
 34 35  1  0  0  0
 35 36  1  0  0  0
 35 37  1  0  0  0
 36 66  1  0  0  0
 36 67  1  0  0  0
 36 68  1  0  0  0
 37 69  1  0  0  0
M  CHG  3   2   1  14  -1  16   1
M  END
> <s_m_source_file>
/Users/choderaj/github/choderalab/mcce-charges/mcce-charges.jchodera/epik_inhibitors/output/Osimertinib/Osimertinib-input.mol2

> <i_m_source_file_index>
1

> <r_epik_Ionization_Penalty>
  0.1053

> <r_epik_Ionization_Penalty_Charging>
  0.0279

> <r_epik_Ionization_Penalty_Neutral>
  0.0774

> <r_epik_State_Penalty>
  3.8935

> <i_epik_Tot_Q>
1

$$$$
YY3
                    3D
 Structure written by MMmdl.
 71 74  0  0  1  0            999 V2000
   -3.2190  -49.7970   11.0900 C   0  0  0  0  0  0
   -2.4360  -49.0430   12.0780 N   0  0  0  0  0  0
   -3.1940  -48.2140   13.0480 C   0  0  0  0  0  0
   -1.8790  -50.1420   12.9170 C   0  0  0  0  0  0
   -0.3450  -50.2720   12.7500 C   0  0  0  0  0  0
    0.2540  -49.4220   13.8270 N   0  3  2  0  0  0
    1.2860  -48.4860   13.3050 C   0  0  0  0  0  0
    1.8270  -50.9880   14.7920 C   0  0  0  0  0  0
    2.2570  -51.7560   15.8830 C   0  0  0  0  0  0
    3.3840  -52.5630   15.7970 O   0  0  0  0  0  0
    4.2560  -52.2140   14.7430 C   0  0  0  0  0  0
    0.6890  -50.2020   14.9230 C   0  0  0  0  0  0
   -0.0870  -50.1800   16.1140 C   0  0  0  0  0  0
   -1.1890  -49.3830   16.2610 N   0  5  0  0  0  0
   -2.2310  -49.6780   17.0600 C   0  0  0  0  0  0
   -2.2740  -50.7450   17.6610 O   0  3  0  0  0  0
   -3.3970  -48.6770   17.2180 C   0  0  0  0  0  0
   -4.5960  -48.9250   18.0680 C   0  0  0  0  0  0
    0.3770  -50.9640   17.2040 C   0  0  0  0  0  0
    1.5390  -51.7450   17.1020 C   0  0  0  0  0  0
    2.0390  -52.5820   18.1300 N   0  0  0  0  0  0
    1.6980  -52.5930   19.4850 C   0  0  0  0  0  0
    0.9690  -51.6510   20.0690 N   0  0  0  0  0  0
    2.1650  -53.6150   20.2090 N   0  0  0  0  0  0
    1.8870  -53.7180   21.5680 C   0  0  0  0  0  0
    1.1370  -52.7430   22.1890 C   0  0  0  0  0  0
    0.6750  -51.6860   21.3960 C   0  0  0  0  0  0
   -0.1460  -50.6020   22.0120 C   0  0  0  0  0  0
   -0.4110  -49.3940   21.4760 C   0  0  0  0  0  0
   -0.0560  -48.8180   20.3070 C   0  0  0  0  0  0
   -0.4670  -47.5300   19.9650 C   0  0  0  0  0  0
   -1.2660  -46.8340   20.8660 C   0  0  0  0  0  0
   -1.6160  -47.4370   22.0710 C   0  0  0  0  0  0
   -1.1720  -48.7260   22.3530 C   0  0  0  0  0  0
   -1.3740  -49.5080   23.4040 N   0  0  0  0  0  0
   -2.1580  -49.1370   24.5860 C   0  0  0  0  0  0
   -0.7510  -50.6610   23.2050 C   0  0  0  0  0  0
   -3.6975  -49.0966   10.3896 H   0  0  0  0  0  0
   -3.9922  -50.3848   11.6063 H   0  0  0  0  0  0
   -2.5536  -50.4741   10.5343 H   0  0  0  0  0  0
   -2.4909  -47.7069   13.7251 H   0  0  0  0  0  0
   -3.8670  -48.8578   13.6333 H   0  0  0  0  0  0
   -3.7859  -47.4629   12.5045 H   0  0  0  0  0  0
   -2.0951  -49.9400   13.9765 H   0  0  0  0  0  0
   -2.3404  -51.0967   12.6242 H   0  0  0  0  0  0
   -0.0519  -51.3262   12.8633 H   0  0  0  0  0  0
   -0.0534  -49.9157   11.7510 H   0  0  0  0  0  0
    1.6917  -47.8880   14.1343 H   0  0  0  0  0  0
    0.8311  -47.8175   12.5592 H   0  0  0  0  0  0
    2.0981  -49.0605   12.8355 H   0  0  0  0  0  0
    2.3740  -51.0070   13.8610 H   0  0  0  0  0  0
    5.1196  -52.8953   14.7408 H   0  0  0  0  0  0
    4.6048  -51.1802   14.8828 H   0  0  0  0  0  0
    3.7229  -52.2947   13.7842 H   0  0  0  0  0  0
   -3.3059  -47.7354   16.6567 H   0  0  0  0  0  0
   -5.3898  -48.1664   18.1340 H   0  0  0  0  0  0
   -4.6871  -49.8666   18.6293 H   0  0  0  0  0  0
   -0.1760  -50.9590   18.1310 H   0  0  0  0  0  0
    2.7972  -53.3446   17.8984 H   0  0  0  0  0  0
    2.2580  -54.5590   22.1350 H   0  0  0  0  0  0
    0.9150  -52.7920   23.2450 H   0  0  0  0  0  0
    0.5640  -49.3710   19.6170 H   0  0  0  0  0  0
   -0.1730  -47.0850   19.0260 H   0  0  0  0  0  0
   -1.6110  -45.8370   20.6330 H   0  0  0  0  0  0
   -2.2300  -46.9070   22.7840 H   0  0  0  0  0  0
   -2.1605  -49.9726   25.3014 H   0  0  0  0  0  0
   -3.1911  -48.9096   24.2842 H   0  0  0  0  0  0
   -1.7107  -48.2504   25.0592 H   0  0  0  0  0  0
   -0.7340  -51.5000   23.8850 H   0  0  0  0  0  0
   -3.1305  -50.9757   18.3115 H   0  0  0  0  0  0
   -0.5287  -48.7962   14.2806 H   0  0  0  0  0  0
  1  2  1  0  0  0
  1 38  1  0  0  0
  1 39  1  0  0  0
  1 40  1  0  0  0
  2  4  1  0  0  0
  2  3  1  0  0  0
  3 41  1  0  0  0
  3 42  1  0  0  0
  3 43  1  0  0  0
  4 44  1  0  0  0
  4 45  1  0  0  0
  4  5  1  0  0  0
  5  6  1  0  0  0
  5 46  1  0  0  0
  5 47  1  0  0  0
  6 12  1  0  0  0
  6  7  1  0  0  0
  6 71  1  0  0  0
  7 48  1  0  0  0
  7 49  1  0  0  0
  7 50  1  0  0  0
  8 12  2  0  0  0
  8  9  1  0  0  0
  8 51  1  0  0  0
  9 20  2  0  0  0
  9 10  1  0  0  0
 10 11  1  0  0  0
 11 52  1  0  0  0
 11 53  1  0  0  0
 11 54  1  0  0  0
 12 13  1  0  0  0
 13 14  1  0  0  0
 13 19  2  0  0  0
 14 15  1  0  0  0
 15 17  1  0  0  0
 15 16  2  0  0  0
 16 70  1  0  0  0
 17 18  2  0  0  0
 17 55  1  0  0  0
 18 56  1  0  0  0
 18 57  1  0  0  0
 19 58  1  0  0  0
 19 20  1  0  0  0
 20 21  1  0  0  0
 21 22  1  0  0  0
 21 59  1  0  0  0
 22 23  2  0  0  0
 22 24  1  0  0  0
 23 27  1  0  0  0
 24 25  2  0  0  0
 25 26  1  0  0  0
 25 60  1  0  0  0
 26 61  1  0  0  0
 26 27  2  0  0  0
 27 28  1  0  0  0
 28 37  2  0  0  0
 28 29  1  0  0  0
 29 34  2  0  0  0
 29 30  1  0  0  0
 30 62  1  0  0  0
 30 31  2  0  0  0
 31 32  1  0  0  0
 31 63  1  0  0  0
 32 33  2  0  0  0
 32 64  1  0  0  0
 33 34  1  0  0  0
 33 65  1  0  0  0
 34 35  1  0  0  0
 35 36  1  0  0  0
 35 37  1  0  0  0
 36 66  1  0  0  0
 36 67  1  0  0  0
 36 68  1  0  0  0
 37 69  1  0  0  0
M  CHG  3   6   1  14  -1  16   1
M  END
> <s_m_source_file>
/Users/choderaj/github/choderalab/mcce-charges/mcce-charges.jchodera/epik_inhibitors/output/Osimertinib/Osimertinib-input.mol2

> <i_m_source_file_index>
1

> <r_epik_Ionization_Penalty>
  0.0410

> <r_epik_Ionization_Penalty_Charging>
  0.0290

> <r_epik_Ionization_Penalty_Neutral>
  0.0120

> <r_epik_State_Penalty>
  4.4313

> <i_epik_Tot_Q>
1

$$$$
YY3
                    3D
 Structure written by MMmdl.
 72 75  0  0  1  0            999 V2000
   -3.2190  -49.7970   11.0900 C   0  0  0  0  0  0
   -2.4360  -49.0430   12.0780 N   0  3  0  0  0  0
   -3.1940  -48.2140   13.0480 C   0  0  0  0  0  0
   -1.8790  -50.1420   12.9170 C   0  0  0  0  0  0
   -0.3450  -50.2720   12.7500 C   0  0  0  0  0  0
    0.2540  -49.4220   13.8270 N   0  0  0  0  0  0
    1.2860  -48.4860   13.3050 C   0  0  0  0  0  0
    1.8270  -50.9880   14.7920 C   0  0  0  0  0  0
    2.2570  -51.7560   15.8830 C   0  0  0  0  0  0
    3.3840  -52.5630   15.7970 O   0  0  0  0  0  0
    4.2560  -52.2140   14.7430 C   0  0  0  0  0  0
    0.6890  -50.2020   14.9230 C   0  0  0  0  0  0
   -0.0870  -50.1800   16.1140 C   0  0  0  0  0  0
   -1.1890  -49.3830   16.2610 N   0  0  0  0  0  0
   -2.2310  -49.6780   17.0600 C   0  0  0  0  0  0
   -2.2740  -50.7450   17.6610 O   0  3  0  0  0  0
   -3.3970  -48.6770   17.2180 C   0  0  0  0  0  0
   -4.5960  -48.9250   18.0680 C   0  0  0  0  0  0
    0.3770  -50.9640   17.2040 C   0  0  0  0  0  0
    1.5390  -51.7450   17.1020 C   0  0  0  0  0  0
    2.0390  -52.5820   18.1300 N   0  0  0  0  0  0
    1.6980  -52.5930   19.4850 C   0  0  0  0  0  0
    0.9690  -51.6510   20.0690 N   0  0  0  0  0  0
    2.1650  -53.6150   20.2090 N   0  0  0  0  0  0
    1.8870  -53.7180   21.5680 C   0  0  0  0  0  0
    1.1370  -52.7430   22.1890 C   0  0  0  0  0  0
    0.6750  -51.6860   21.3960 C   0  0  0  0  0  0
   -0.1460  -50.6020   22.0120 C   0  0  0  0  0  0
   -0.4110  -49.3940   21.4760 C   0  0  0  0  0  0
   -0.0560  -48.8180   20.3070 C   0  0  0  0  0  0
   -0.4670  -47.5300   19.9650 C   0  0  0  0  0  0
   -1.2660  -46.8340   20.8660 C   0  0  0  0  0  0
   -1.6160  -47.4370   22.0710 C   0  0  0  0  0  0
   -1.1720  -48.7260   22.3530 C   0  0  0  0  0  0
   -1.3740  -49.5080   23.4040 N   0  0  0  0  0  0
   -2.1580  -49.1370   24.5860 C   0  0  0  0  0  0
   -0.7510  -50.6610   23.2050 C   0  0  0  0  0  0
   -3.6975  -49.0966   10.3896 H   0  0  0  0  0  0
   -3.9922  -50.3848   11.6063 H   0  0  0  0  0  0
   -2.5536  -50.4741   10.5343 H   0  0  0  0  0  0
   -2.4909  -47.7069   13.7251 H   0  0  0  0  0  0
   -3.8670  -48.8578   13.6333 H   0  0  0  0  0  0
   -3.7859  -47.4629   12.5045 H   0  0  0  0  0  0
   -2.0951  -49.9400   13.9765 H   0  0  0  0  0  0
   -2.3404  -51.0967   12.6242 H   0  0  0  0  0  0
   -0.0519  -51.3262   12.8633 H   0  0  0  0  0  0
   -0.0534  -49.9157   11.7510 H   0  0  0  0  0  0
    1.6917  -47.8880   14.1343 H   0  0  0  0  0  0
    0.8311  -47.8175   12.5592 H   0  0  0  0  0  0
    2.0981  -49.0605   12.8355 H   0  0  0  0  0  0
    2.3740  -51.0070   13.8610 H   0  0  0  0  0  0
    5.1196  -52.8953   14.7408 H   0  0  0  0  0  0
    4.6048  -51.1802   14.8828 H   0  0  0  0  0  0
    3.7229  -52.2947   13.7842 H   0  0  0  0  0  0
   -1.2604  -48.4355   15.7067 H   0  0  0  0  0  0
   -3.3059  -47.7354   16.6567 H   0  0  0  0  0  0
   -5.3898  -48.1664   18.1340 H   0  0  0  0  0  0
   -4.6871  -49.8666   18.6293 H   0  0  0  0  0  0
   -0.1760  -50.9590   18.1310 H   0  0  0  0  0  0
    2.7972  -53.3446   17.8984 H   0  0  0  0  0  0
    2.2580  -54.5590   22.1350 H   0  0  0  0  0  0
    0.9150  -52.7920   23.2450 H   0  0  0  0  0  0
    0.5640  -49.3710   19.6170 H   0  0  0  0  0  0
   -0.1730  -47.0850   19.0260 H   0  0  0  0  0  0
   -1.6110  -45.8370   20.6330 H   0  0  0  0  0  0
   -2.2300  -46.9070   22.7840 H   0  0  0  0  0  0
   -2.1605  -49.9726   25.3014 H   0  0  0  0  0  0
   -3.1911  -48.9096   24.2842 H   0  0  0  0  0  0
   -1.7107  -48.2504   25.0592 H   0  0  0  0  0  0
   -0.7340  -51.5000   23.8850 H   0  0  0  0  0  0
   -1.7762  -48.3563   11.5275 H   0  0  0  0  0  0
   -3.1305  -50.9757   18.3115 H   0  0  0  0  0  0
  1  2  1  0  0  0
  1 38  1  0  0  0
  1 39  1  0  0  0
  1 40  1  0  0  0
  2  4  1  0  0  0
  2  3  1  0  0  0
  2 71  1  0  0  0
  3 41  1  0  0  0
  3 42  1  0  0  0
  3 43  1  0  0  0
  4 44  1  0  0  0
  4 45  1  0  0  0
  4  5  1  0  0  0
  5  6  1  0  0  0
  5 46  1  0  0  0
  5 47  1  0  0  0
  6 12  1  0  0  0
  6  7  1  0  0  0
  7 48  1  0  0  0
  7 49  1  0  0  0
  7 50  1  0  0  0
  8 12  2  0  0  0
  8  9  1  0  0  0
  8 51  1  0  0  0
  9 20  2  0  0  0
  9 10  1  0  0  0
 10 11  1  0  0  0
 11 52  1  0  0  0
 11 53  1  0  0  0
 11 54  1  0  0  0
 12 13  1  0  0  0
 13 14  1  0  0  0
 13 19  2  0  0  0
 14 15  1  0  0  0
 14 55  1  0  0  0
 15 17  1  0  0  0
 15 16  2  0  0  0
 16 72  1  0  0  0
 17 18  2  0  0  0
 17 56  1  0  0  0
 18 57  1  0  0  0
 18 58  1  0  0  0
 19 59  1  0  0  0
 19 20  1  0  0  0
 20 21  1  0  0  0
 21 22  1  0  0  0
 21 60  1  0  0  0
 22 23  2  0  0  0
 22 24  1  0  0  0
 23 27  1  0  0  0
 24 25  2  0  0  0
 25 26  1  0  0  0
 25 61  1  0  0  0
 26 62  1  0  0  0
 26 27  2  0  0  0
 27 28  1  0  0  0
 28 37  2  0  0  0
 28 29  1  0  0  0
 29 34  2  0  0  0
 29 30  1  0  0  0
 30 63  1  0  0  0
 30 31  2  0  0  0
 31 32  1  0  0  0
 31 64  1  0  0  0
 32 33  2  0  0  0
 32 65  1  0  0  0
 33 34  1  0  0  0
 33 66  1  0  0  0
 34 35  1  0  0  0
 35 36  1  0  0  0
 35 37  1  0  0  0
 36 67  1  0  0  0
 36 68  1  0  0  0
 36 69  1  0  0  0
 37 70  1  0  0  0
M  CHG  2   2   1  16   1
M  END
> <s_m_source_file>
/Users/choderaj/github/choderalab/mcce-charges/mcce-charges.jchodera/epik_inhibitors/output/Osimertinib/Osimertinib-input.mol2

> <i_m_source_file_index>
1

> <r_epik_Ionization_Penalty>
  6.4717

> <r_epik_Ionization_Penalty_Charging>
  4.4028

> <r_epik_Ionization_Penalty_Neutral>
  2.0689

> <r_epik_State_Penalty>
  4.9721

> <i_epik_Tot_Q>
2

$$$$
YY3
                    3D
 Structure written by MMmdl.
 72 75  0  0  1  0            999 V2000
   -3.2190  -49.7970   11.0900 C   0  0  0  0  0  0
   -2.4360  -49.0430   12.0780 N   0  3  0  0  0  0
   -3.1940  -48.2140   13.0480 C   0  0  0  0  0  0
   -1.8790  -50.1420   12.9170 C   0  0  0  0  0  0
   -0.3450  -50.2720   12.7500 C   0  0  0  0  0  0
    0.2540  -49.4220   13.8270 N   0  3  2  0  0  0
    1.2860  -48.4860   13.3050 C   0  0  0  0  0  0
    1.8270  -50.9880   14.7920 C   0  0  0  0  0  0
    2.2570  -51.7560   15.8830 C   0  0  0  0  0  0
    3.3840  -52.5630   15.7970 O   0  0  0  0  0  0
    4.2560  -52.2140   14.7430 C   0  0  0  0  0  0
    0.6890  -50.2020   14.9230 C   0  0  0  0  0  0
   -0.0870  -50.1800   16.1140 C   0  0  0  0  0  0
   -1.1890  -49.3830   16.2610 N   0  0  0  0  0  0
   -2.2310  -49.6780   17.0600 C   0  0  0  0  0  0
   -2.2740  -50.7450   17.6610 O   0  0  0  0  0  0
   -3.3970  -48.6770   17.2180 C   0  0  0  0  0  0
   -4.5960  -48.9250   18.0680 C   0  0  0  0  0  0
    0.3770  -50.9640   17.2040 C   0  0  0  0  0  0
    1.5390  -51.7450   17.1020 C   0  0  0  0  0  0
    2.0390  -52.5820   18.1300 N   0  0  0  0  0  0
    1.6980  -52.5930   19.4850 C   0  0  0  0  0  0
    0.9690  -51.6510   20.0690 N   0  0  0  0  0  0
    2.1650  -53.6150   20.2090 N   0  0  0  0  0  0
    1.8870  -53.7180   21.5680 C   0  0  0  0  0  0
    1.1370  -52.7430   22.1890 C   0  0  0  0  0  0
    0.6750  -51.6860   21.3960 C   0  0  0  0  0  0
   -0.1460  -50.6020   22.0120 C   0  0  0  0  0  0
   -0.4110  -49.3940   21.4760 C   0  0  0  0  0  0
   -0.0560  -48.8180   20.3070 C   0  0  0  0  0  0
   -0.4670  -47.5300   19.9650 C   0  0  0  0  0  0
   -1.2660  -46.8340   20.8660 C   0  0  0  0  0  0
   -1.6160  -47.4370   22.0710 C   0  0  0  0  0  0
   -1.1720  -48.7260   22.3530 C   0  0  0  0  0  0
   -1.3740  -49.5080   23.4040 N   0  0  0  0  0  0
   -2.1580  -49.1370   24.5860 C   0  0  0  0  0  0
   -0.7510  -50.6610   23.2050 C   0  0  0  0  0  0
   -3.6975  -49.0966   10.3896 H   0  0  0  0  0  0
   -3.9922  -50.3848   11.6063 H   0  0  0  0  0  0
   -2.5536  -50.4741   10.5343 H   0  0  0  0  0  0
   -2.4909  -47.7069   13.7251 H   0  0  0  0  0  0
   -3.8670  -48.8578   13.6333 H   0  0  0  0  0  0
   -3.7859  -47.4629   12.5045 H   0  0  0  0  0  0
   -2.0951  -49.9400   13.9765 H   0  0  0  0  0  0
   -2.3404  -51.0967   12.6242 H   0  0  0  0  0  0
   -0.0519  -51.3262   12.8633 H   0  0  0  0  0  0
   -0.0534  -49.9157   11.7510 H   0  0  0  0  0  0
    1.6917  -47.8880   14.1343 H   0  0  0  0  0  0
    0.8311  -47.8175   12.5592 H   0  0  0  0  0  0
    2.0981  -49.0605   12.8355 H   0  0  0  0  0  0
    2.3740  -51.0070   13.8610 H   0  0  0  0  0  0
    5.1196  -52.8953   14.7408 H   0  0  0  0  0  0
    4.6048  -51.1802   14.8828 H   0  0  0  0  0  0
    3.7229  -52.2947   13.7842 H   0  0  0  0  0  0
   -1.2604  -48.4355   15.7067 H   0  0  0  0  0  0
   -3.3059  -47.7354   16.6567 H   0  0  0  0  0  0
   -5.3898  -48.1664   18.1340 H   0  0  0  0  0  0
   -4.6871  -49.8666   18.6293 H   0  0  0  0  0  0
   -0.1760  -50.9590   18.1310 H   0  0  0  0  0  0
    2.7972  -53.3446   17.8984 H   0  0  0  0  0  0
    2.2580  -54.5590   22.1350 H   0  0  0  0  0  0
    0.9150  -52.7920   23.2450 H   0  0  0  0  0  0
    0.5640  -49.3710   19.6170 H   0  0  0  0  0  0
   -0.1730  -47.0850   19.0260 H   0  0  0  0  0  0
   -1.6110  -45.8370   20.6330 H   0  0  0  0  0  0
   -2.2300  -46.9070   22.7840 H   0  0  0  0  0  0
   -2.1605  -49.9726   25.3014 H   0  0  0  0  0  0
   -3.1911  -48.9096   24.2842 H   0  0  0  0  0  0
   -1.7107  -48.2504   25.0592 H   0  0  0  0  0  0
   -0.7340  -51.5000   23.8850 H   0  0  0  0  0  0
   -1.7762  -48.3563   11.5275 H   0  0  0  0  0  0
   -0.5287  -48.7962   14.2806 H   0  0  0  0  0  0
  1  2  1  0  0  0
  1 38  1  0  0  0
  1 39  1  0  0  0
  1 40  1  0  0  0
  2  4  1  0  0  0
  2  3  1  0  0  0
  2 71  1  0  0  0
  3 41  1  0  0  0
  3 42  1  0  0  0
  3 43  1  0  0  0
  4 44  1  0  0  0
  4 45  1  0  0  0
  4  5  1  0  0  0
  5  6  1  0  0  0
  5 46  1  0  0  0
  5 47  1  0  0  0
  6 12  1  0  0  0
  6  7  1  0  0  0
  6 72  1  0  0  0
  7 48  1  0  0  0
  7 49  1  0  0  0
  7 50  1  0  0  0
  8 12  2  0  0  0
  8  9  1  0  0  0
  8 51  1  0  0  0
  9 20  2  0  0  0
  9 10  1  0  0  0
 10 11  1  0  0  0
 11 52  1  0  0  0
 11 53  1  0  0  0
 11 54  1  0  0  0
 12 13  1  0  0  0
 13 14  1  0  0  0
 13 19  2  0  0  0
 14 15  1  0  0  0
 14 55  1  0  0  0
 15 17  1  0  0  0
 15 16  2  0  0  0
 17 18  2  0  0  0
 17 56  1  0  0  0
 18 57  1  0  0  0
 18 58  1  0  0  0
 19 59  1  0  0  0
 19 20  1  0  0  0
 20 21  1  0  0  0
 21 22  1  0  0  0
 21 60  1  0  0  0
 22 23  2  0  0  0
 22 24  1  0  0  0
 23 27  1  0  0  0
 24 25  2  0  0  0
 25 26  1  0  0  0
 25 61  1  0  0  0
 26 62  1  0  0  0
 26 27  2  0  0  0
 27 28  1  0  0  0
 28 37  2  0  0  0
 28 29  1  0  0  0
 29 34  2  0  0  0
 29 30  1  0  0  0
 30 63  1  0  0  0
 30 31  2  0  0  0
 31 32  1  0  0  0
 31 64  1  0  0  0
 32 33  2  0  0  0
 32 65  1  0  0  0
 33 34  1  0  0  0
 33 66  1  0  0  0
 34 35  1  0  0  0
 35 36  1  0  0  0
 35 37  1  0  0  0
 36 67  1  0  0  0
 36 68  1  0  0  0
 36 69  1  0  0  0
 37 70  1  0  0  0
M  CHG  2   2   1   6   1
M  END
> <s_m_source_file>
/Users/choderaj/github/choderalab/mcce-charges/mcce-charges.jchodera/epik_inhibitors/output/Osimertinib/Osimertinib-input.mol2

> <i_m_source_file_index>
1

> <r_epik_Ionization_Penalty>
  7.3603

> <r_epik_Ionization_Penalty_Charging>
  7.3595

> <r_epik_Ionization_Penalty_Neutral>
  0.0009

> <r_epik_State_Penalty>
  5.4487

> <i_epik_Tot_Q>
2

$$$$
