@<TRIPOS>MOLECULE
2-[5-methoxy-~{N}-methyl-4-[[4-(1-methylindol-3-yl)pyrimidin-2-yl]amino]-2-(prop-2-enoylamino)anilino]ethyl-dimethyl-ammonium
   71    74     1     0     0
SMALL
USER_CHARGES

@<TRIPOS>ATOM
      1 C13        -3.2190  -49.7970   11.0900 C.3       1 YY3         0.0792
      2 N2         -2.4360  -49.0430   12.0780 N.4       1 YY3        -0.6703
      3 C12        -3.1940  -48.2140   13.0480 C.3       1 YY3         0.0792
      4 C11        -1.8790  -50.1420   12.9170 C.3       1 YY3         0.0550
      5 C10        -0.3450  -50.2720   12.7500 C.3       1 YY3         0.2441
      6 N1          0.2540  -49.4220   13.8270 N.pl3     1 YY3        -0.7346
      7 C28         1.2860  -48.4860   13.3050 C.3       1 YY3         0.2139
      8 C3          1.8270  -50.9880   14.7920 C.ar      1 YY3        -0.1079
      9 C4          2.2570  -51.7560   15.8830 C.ar      1 YY3         0.0066
     10 O1          3.3840  -52.5630   15.7970 O.3       1 YY3        -0.3402
     11 C14         4.2560  -52.2140   14.7430 C.3       1 YY3         0.1090
     12 C2          0.6890  -50.2020   14.9230 C.ar      1 YY3         0.0289
     13 C1         -0.0870  -50.1800   16.1140 C.ar      1 YY3         0.1082
     14 N          -1.1890  -49.3830   16.2610 N.am      1 YY3        -0.4778
     15 C7         -2.2310  -49.6780   17.0600 C.2       1 YY3         0.6652
     16 O          -2.2740  -50.7450   17.6610 O.2       1 YY3        -0.5616
     17 C8         -3.3970  -48.6770   17.2180 C.2       1 YY3        -0.2582
     18 C9         -4.5960  -48.9250   18.0680 C.2       1 YY3        -0.1062
     19 C6          0.3770  -50.9640   17.2040 C.ar      1 YY3        -0.1709
     20 C5          1.5390  -51.7450   17.1020 C.ar      1 YY3         0.2055
     21 N3          2.0390  -52.5820   18.1300 N.pl3     1 YY3        -0.7106
     22 C15         1.6980  -52.5930   19.4850 C.ar      1 YY3         0.8577
     23 N5          0.9690  -51.6510   20.0690 N.ar      1 YY3        -0.7216
     24 N4          2.1650  -53.6150   20.2090 N.ar      1 YY3        -0.7319
     25 C16         1.8870  -53.7180   21.5680 C.ar      1 YY3         0.4584
     26 C17         1.1370  -52.7430   22.1890 C.ar      1 YY3        -0.3887
     27 C18         0.6750  -51.6860   21.3960 C.ar      1 YY3         0.5743
     28 C19        -0.1460  -50.6020   22.0120 C.ar      1 YY3        -0.2408
     29 C26        -0.4110  -49.3940   21.4760 C.ar      1 YY3        -0.0612
     30 C25        -0.0560  -48.8180   20.3070 C.ar      1 YY3        -0.0803
     31 C24        -0.4670  -47.5300   19.9650 C.ar      1 YY3        -0.1517
     32 C23        -1.2660  -46.8340   20.8660 C.ar      1 YY3        -0.1116
     33 C22        -1.6160  -47.4370   22.0710 C.ar      1 YY3        -0.1366
     34 C21        -1.1720  -48.7260   22.3530 C.ar      1 YY3         0.0794
     35 N6         -1.3740  -49.5080   23.4040 N.pl3     1 YY3        -0.4823
     36 C27        -2.1580  -49.1370   24.5860 C.3       1 YY3         0.2040
     37 C20        -0.7510  -50.6610   23.2050 C.ar      1 YY3         0.0428
     38 H1         -3.6975  -49.0966   10.3896 H         1 YY3         0.1055
     39 H2         -3.9922  -50.3848   11.6063 H         1 YY3         0.1055
     40 H3         -2.5536  -50.4741   10.5343 H         1 YY3         0.1055
     41 H5         -2.4909  -47.7069   13.7251 H         1 YY3         0.1055
     42 H6         -3.8670  -48.8578   13.6333 H         1 YY3         0.1055
     43 H7         -3.7859  -47.4629   12.5045 H         1 YY3         0.1055
     44 H8         -2.0951  -49.9400   13.9765 H         1 YY3         0.1078
     45 H9         -2.3404  -51.0967   12.6242 H         1 YY3         0.1078
     46 H10        -0.0519  -51.3262   12.8633 H         1 YY3         0.0524
     47 H11        -0.0534  -49.9157   11.7510 H         1 YY3         0.0524
     48 H12         1.6917  -47.8880   14.1343 H         1 YY3         0.0392
     49 H13         0.8311  -47.8175   12.5592 H         1 YY3         0.0392
     50 H14         2.0981  -49.0605   12.8355 H         1 YY3         0.0392
     51 H15         2.3740  -51.0070   13.8610 H         1 YY3         0.1275
     52 H16         5.1196  -52.8953   14.7408 H         1 YY3         0.0427
     53 H17         4.6048  -51.1802   14.8828 H         1 YY3         0.0427
     54 H18         3.7229  -52.2947   13.7842 H         1 YY3         0.0427
     55 H19        -1.2604  -48.4355   15.7067 H         1 YY3         0.3099
     56 H20        -3.3059  -47.7354   16.6567 H         1 YY3         0.1250
     57 H22        -5.3898  -48.1664   18.1340 H         1 YY3         0.1385
     58 H23        -4.6871  -49.8666   18.6293 H         1 YY3         0.1385
     59 H25        -0.1760  -50.9590   18.1310 H         1 YY3         0.2146
     60 H26         2.7972  -53.3446   17.8984 H         1 YY3         0.4577
     61 H27         2.2580  -54.5590   22.1350 H         1 YY3         0.0347
     62 H28         0.9150  -52.7920   23.2450 H         1 YY3         0.1630
     63 H29         0.5640  -49.3710   19.6170 H         1 YY3         0.1406
     64 H30        -0.1730  -47.0850   19.0260 H         1 YY3         0.1314
     65 H31        -1.6110  -45.8370   20.6330 H         1 YY3         0.1341
     66 H32        -2.2300  -46.9070   22.7840 H         1 YY3         0.1348
     67 H33        -2.1605  -49.9726   25.3014 H         1 YY3         0.0541
     68 H34        -3.1911  -48.9096   24.2842 H         1 YY3         0.0541
     69 H35        -1.7107  -48.2504   25.0592 H         1 YY3         0.0541
     70 H36        -0.7340  -51.5000   23.8850 H         1 YY3         0.1710
     71 H71        -1.7762  -48.3563   11.5275 H         1 YY3         0.4505
@<TRIPOS>BOND
     1    1    2 1
     2    1   38 1
     3    1   39 1
     4    1   40 1
     5    2    4 1
     6    2    3 1
     7    2   71 1
     8    3   41 1
     9    3   42 1
    10    3   43 1
    11    4   44 1
    12    4   45 1
    13    4    5 1
    14    5    6 1
    15    5   46 1
    16    5   47 1
    17    6   12 1
    18    6    7 1
    19    7   48 1
    20    7   49 1
    21    7   50 1
    22    8   12 ar
    23    8    9 ar
    24    8   51 1
    25    9   20 ar
    26    9   10 1
    27   10   11 1
    28   11   52 1
    29   11   53 1
    30   11   54 1
    31   12   13 ar
    32   13   14 1
    33   13   19 ar
    34   14   15 am
    35   14   55 1
    36   15   17 1
    37   15   16 2
    38   17   18 2
    39   17   56 1
    40   18   57 1
    41   18   58 1
    42   19   59 1
    43   19   20 ar
    44   20   21 1
    45   21   22 1
    46   21   60 1
    47   22   23 ar
    48   22   24 ar
    49   23   27 ar
    50   24   25 ar
    51   25   26 ar
    52   25   61 1
    53   26   62 1
    54   26   27 ar
    55   27   28 1
    56   28   37 ar
    57   28   29 ar
    58   29   34 ar
    59   29   30 ar
    60   30   63 1
    61   30   31 ar
    62   31   32 ar
    63   31   64 1
    64   32   33 ar
    65   32   65 1
    66   33   34 ar
    67   33   66 1
    68   34   35 ar
    69   35   36 1
    70   35   37 ar
    71   36   67 1
    72   36   68 1
    73   36   69 1
    74   37   70 1
@<TRIPOS>SUBSTRUCTURE
     1 YY3         1 GROUP   0 A     ****
