@<TRIPOS>MOLECULE
~{N}-[2-[2-(dimethylamino)ethyl-methyl-amino]-4-methoxy-5-[[4-(1-methylindol-3-yl)pyrimidin-2-yl]amino]phenyl]prop-2-enamide
71   74    1
SMALL
USER_CHARGES


@<TRIPOS>ATOM
      1 C1        -11.2397    8.2942    3.0775 C.3       1 OSI         0.2081 
      2 N1        -10.3716    7.4871    3.9075 N.pl3     1 OSI        -0.4904 
      3 C2         -9.7322    6.3538    3.4818 C.ar      1 OSI         0.0617 
      4 C3         -9.0005    5.8589    4.5366 C.ar      1 OSI        -0.2376 
      5 C4         -9.2027    6.7245    5.6479 C.ar      1 OSI        -0.0628 
      6 C5         -8.7321    6.7433    6.9759 C.ar      1 OSI        -0.0876 
      7 C6         -9.1424    7.7725    7.8310 C.ar      1 OSI        -0.1522 
      8 C7        -10.0056    8.7705    7.3830 C.ar      1 OSI        -0.1170 
      9 C8        -10.4853    8.7726    6.0700 C.ar      1 OSI        -0.1385 
     10 C9        -10.0667    7.7375    5.2264 C.ar      1 OSI         0.0765 
     11 C10        -8.2053    4.6694    4.4284 C.ar      1 OSI         0.5706 
     12 N2         -8.0637    3.9524    5.5626 N.ar      1 OSI        -0.7523 
     13 C11        -7.3150    2.8396    5.4416 C.ar      1 OSI         0.8794 
     14 N3         -6.7109    2.3878    4.3261 N.ar      1 OSI        -0.7276 
     15 C12        -6.8941    3.1527    3.2299 C.ar      1 OSI         0.4618 
     16 C13        -7.6382    4.3147    3.2214 C.ar      1 OSI        -0.4065 
     17 N4         -7.1454    2.0639    6.6092 N.pl3     1 OSI        -0.7308 
     18 C14        -7.6128    2.2136    7.9282 C.ar      1 OSI         0.1858 
     19 C15        -6.8701    1.7262    9.0036 C.ar      1 OSI         0.0084 
     20 C16        -7.3450    1.8804   10.3061 C.ar      1 OSI        -0.1088 
     21 C17        -8.5626    2.5218   10.5331 C.ar      1 OSI         0.0455 
     22 C18        -9.3054    3.0091    9.4577 C.ar      1 OSI         0.1088 
     23 C19        -8.8304    2.8550    8.1552 C.ar      1 OSI        -0.1693 
     24 N5        -10.5273    3.6565    9.6615 N.am      1 OSI        -0.4594 
     25 C20       -11.3860    4.1981    8.6974 C.2       1 OSI         0.6607 
     26 O1        -11.2253    4.2064    7.4827 O.2       1 OSI        -0.5885 
     27 C21       -12.5967    4.8065    9.3216 C.2       1 OSI        -0.2404 
     28 C22       -13.5385    5.3771    8.5638 C.2       1 OSI        -0.1319 
     29 N6         -9.0240    2.6667   11.8606 N.pl3     1 OSI        -0.7102 
     30 C23        -9.8566    1.6454   12.4612 C.3       1 OSI         0.2005 
     31 C24        -8.6577    3.8316   12.6392 C.3       1 OSI         0.2106 
     32 C25        -7.3730    3.6110   13.4127 C.3       1 OSI         0.1398 
     33 N7         -7.0029    4.7637   14.1884 N.4       1 OSI        -0.7456 
     34 C26        -6.3474    5.7829   13.3541 C.3       1 OSI         0.1612 
     35 C27        -6.1152    4.3969   15.3029 C.3       1 OSI         0.1612 
     36 O2         -5.6781    1.0964    8.8026 O.3       1 OSI        -0.3488 
     37 C28        -4.5083    1.9117    8.7953 C.3       1 OSI         0.1129 
     38 H1        -11.2978    7.8541    2.0711 H         1 OSI         0.0514 
     39 H2        -10.8358    9.3150    3.0085 H         1 OSI         0.0514 
     40 H3        -12.2454    8.3270    3.5220 H         1 OSI         0.0514 
     41 H4         -9.8535    5.9989    2.4662 H         1 OSI         0.1770 
     42 H5         -8.0590    5.9728    7.3411 H         1 OSI         0.1380 
     43 H6         -8.7828    7.7922    8.8564 H         1 OSI         0.1297 
     44 H7        -10.3114    9.5603    8.0644 H         1 OSI         0.1297 
     45 H8        -11.1571    9.5522    5.7266 H         1 OSI         0.1315 
     46 H9         -6.4097    2.7934    2.3281 H         1 OSI         0.0298 
     47 H10        -7.7593    4.8995    2.3179 H         1 OSI         0.1589 
     48 H11        -6.5445    1.1432    6.5753 H         1 OSI         0.4662 
     49 H12        -6.7620    1.4983   11.1409 H         1 OSI         0.1439 
     50 H13        -9.4089    3.2354    7.3157 H         1 OSI         0.1989 
     51 H14       -10.9166    3.7880   10.6819 H         1 OSI         0.3330 
     52 H15       -12.7106    4.7827   10.4154 H         1 OSI         0.1312 
     53 H16       -14.4274    5.8229    9.0340 H         1 OSI         0.1300 
     54 H17       -13.4246    5.4009    7.4700 H         1 OSI         0.1300 
     55 H18       -10.1108    1.9382   13.4906 H         1 OSI         0.0302 
     56 H19        -9.3118    0.6899   12.4757 H         1 OSI         0.0302 
     57 H20       -10.7796    1.5324   11.8735 H         1 OSI         0.0302 
     58 H21        -8.5131    4.6908   11.9677 H         1 OSI         0.0544 
     59 H22        -9.4587    4.0589   13.3581 H         1 OSI         0.0544 
     60 H23        -7.5004    2.7621   14.1006 H         1 OSI         0.0349 
     61 H24        -6.5547    3.3941   12.7103 H         1 OSI         0.0349 
     62 H25        -6.0781    6.6487   13.9769 H         1 OSI         0.0304 
     63 H26        -7.0359    6.1035   12.5583 H         1 OSI         0.0304 
     64 H27        -5.4382    5.3584   12.9033 H         1 OSI         0.0304 
     65 H28        -5.8520    5.2993   15.8742 H         1 OSI         0.0304 
     66 H29        -5.1997    3.9345   14.9055 H         1 OSI         0.0304 
     67 H30        -6.6303    3.6827   15.9622 H         1 OSI         0.0304 
     68 H31        -3.6231    1.2814    8.6245 H         1 OSI         0.0398 
     69 H32        -4.4123    2.4239    9.7640 H         1 OSI         0.0398 
     70 H33        -4.5871    2.6588    7.9917 H         1 OSI         0.0398 
     71 H71        -7.9460    5.1659   14.5868 H         1 OSI         0.0000 
@<TRIPOS>BOND
     1    1    2 1    
     2    1   38 1    
     3    1   39 1    
     4    1   40 1    
     5    2   10 ar   
     6    2    3 ar   
     7    3    4 ar   
     8    3   41 1    
     9    4    5 ar   
    10    4   11 1    
    11    5   10 ar   
    12    5    6 ar   
    13    6    7 ar   
    14    6   42 1    
    15    7    8 ar   
    16    7   43 1    
    17    8    9 ar   
    18    8   44 1    
    19    9   10 ar   
    20    9   45 1    
    21   11   16 ar   
    22   11   12 ar   
    23   12   13 ar   
    24   13   14 ar   
    25   13   17 1    
    26   14   15 ar   
    27   15   16 ar   
    28   15   46 1    
    29   16   47 1    
    30   17   18 1    
    31   17   48 1    
    32   18   23 ar   
    33   18   19 ar   
    34   19   20 ar   
    35   19   36 1    
    36   20   21 ar   
    37   20   49 1    
    38   21   22 ar   
    39   21   29 1    
    40   22   23 ar   
    41   22   24 1    
    42   23   50 1    
    43   24   25 am   BACKBONE|DICT|INTERRES
    44   24   51 1    
    45   25   26 2    
    46   25   27 1    
    47   27   28 2    
    48   27   52 1    
    49   28   53 1    
    50   28   54 1    
    51   29   30 1    
    52   29   31 1    
    53   30   55 1    
    54   30   56 1    
    55   30   57 1    
    56   31   32 1    
    57   31   58 1    
    58   31   59 1    
    59   32   33 1    
    60   32   60 1    
    61   32   61 1    
    62   33   34 1    
    63   33   35 1    
    64   33   71 1    
    65   34   62 1    
    66   34   63 1    
    67   34   64 1    
    68   35   65 1    
    69   35   66 1    
    70   35   67 1    
    71   36   37 1    
    72   37   68 1    
    73   37   69 1    
    74   37   70 1    
@<TRIPOS>SUBSTRUCTURE
     1 OSI         1 GROUP             0       ****    0 ROOT    
@<TRIPOS>MOLECULE
~{N}-[2-[2-(dimethylamino)ethyl-methyl-amino]-4-methoxy-5-[[4-(1-methylindol-3-yl)pyrimidin-2-yl]amino]phenyl]prop-2-enamide
70   73    1
SMALL
USER_CHARGES


@<TRIPOS>ATOM
      1 C1        -11.2397    8.2942    3.0775 C.3       1 OSI         0.2081 
      2 N1        -10.3716    7.4871    3.9075 N.pl3     1 OSI        -0.4904 
      3 C2         -9.7322    6.3538    3.4818 C.ar      1 OSI         0.0617 
      4 C3         -9.0005    5.8589    4.5366 C.ar      1 OSI        -0.2376 
      5 C4         -9.2027    6.7245    5.6479 C.ar      1 OSI        -0.0628 
      6 C5         -8.7321    6.7433    6.9759 C.ar      1 OSI        -0.0876 
      7 C6         -9.1424    7.7725    7.8310 C.ar      1 OSI        -0.1522 
      8 C7        -10.0056    8.7705    7.3830 C.ar      1 OSI        -0.1170 
      9 C8        -10.4853    8.7726    6.0700 C.ar      1 OSI        -0.1385 
     10 C9        -10.0667    7.7375    5.2264 C.ar      1 OSI         0.0765 
     11 C10        -8.2053    4.6694    4.4284 C.ar      1 OSI         0.5706 
     12 N2         -8.0637    3.9524    5.5626 N.ar      1 OSI        -0.7523 
     13 C11        -7.3150    2.8396    5.4416 C.ar      1 OSI         0.8794 
     14 N3         -6.7109    2.3878    4.3261 N.ar      1 OSI        -0.7276 
     15 C12        -6.8941    3.1527    3.2299 C.ar      1 OSI         0.4618 
     16 C13        -7.6382    4.3147    3.2214 C.ar      1 OSI        -0.4065 
     17 N4         -7.1454    2.0639    6.6092 N.pl3     1 OSI        -0.7308 
     18 C14        -7.6128    2.2136    7.9282 C.ar      1 OSI         0.1858 
     19 C15        -6.8701    1.7262    9.0036 C.ar      1 OSI         0.0084 
     20 C16        -7.3450    1.8804   10.3061 C.ar      1 OSI        -0.1088 
     21 C17        -8.5626    2.5218   10.5331 C.ar      1 OSI         0.0455 
     22 C18        -9.3054    3.0091    9.4577 C.ar      1 OSI         0.1088 
     23 C19        -8.8304    2.8550    8.1552 C.ar      1 OSI        -0.1693 
     24 N5        -10.5273    3.6565    9.6615 N.am      1 OSI        -0.4594 
     25 C20       -11.3860    4.1981    8.6974 C.2       1 OSI         0.6607 
     26 O1        -11.2253    4.2064    7.4827 O.2       1 OSI        -0.5885 
     27 C21       -12.5967    4.8065    9.3216 C.2       1 OSI        -0.2404 
     28 C22       -13.5385    5.3771    8.5638 C.2       1 OSI        -0.1319 
     29 N6         -9.0240    2.6667   11.8606 N.pl3     1 OSI        -0.7102 
     30 C23        -9.8566    1.6454   12.4612 C.3       1 OSI         0.2005 
     31 C24        -8.6577    3.8316   12.6392 C.3       1 OSI         0.2106 
     32 C25        -7.3730    3.6110   13.4127 C.3       1 OSI         0.1398 
     33 N7         -7.0029    4.7637   14.1884 N.3       1 OSI        -0.7456 
     34 C26        -6.3474    5.7829   13.3541 C.3       1 OSI         0.1612 
     35 C27        -6.1152    4.3969   15.3029 C.3       1 OSI         0.1612 
     36 O2         -5.6781    1.0964    8.8026 O.3       1 OSI        -0.3488 
     37 C28        -4.5083    1.9117    8.7953 C.3       1 OSI         0.1129 
     38 H1        -11.2978    7.8541    2.0711 H         1 OSI         0.0514 
     39 H2        -10.8358    9.3150    3.0085 H         1 OSI         0.0514 
     40 H3        -12.2454    8.3270    3.5220 H         1 OSI         0.0514 
     41 H4         -9.8535    5.9989    2.4662 H         1 OSI         0.1770 
     42 H5         -8.0590    5.9728    7.3411 H         1 OSI         0.1380 
     43 H6         -8.7828    7.7922    8.8564 H         1 OSI         0.1297 
     44 H7        -10.3114    9.5603    8.0644 H         1 OSI         0.1297 
     45 H8        -11.1571    9.5522    5.7266 H         1 OSI         0.1315 
     46 H9         -6.4097    2.7934    2.3281 H         1 OSI         0.0298 
     47 H10        -7.7593    4.8995    2.3179 H         1 OSI         0.1589 
     48 H11        -6.5445    1.1432    6.5753 H         1 OSI         0.4662 
     49 H12        -6.7620    1.4983   11.1409 H         1 OSI         0.1439 
     50 H13        -9.4089    3.2354    7.3157 H         1 OSI         0.1989 
     51 H14       -10.9166    3.7880   10.6819 H         1 OSI         0.3330 
     52 H15       -12.7106    4.7827   10.4154 H         1 OSI         0.1312 
     53 H16       -14.4274    5.8229    9.0340 H         1 OSI         0.1300 
     54 H17       -13.4246    5.4009    7.4700 H         1 OSI         0.1300 
     55 H18       -10.1108    1.9382   13.4906 H         1 OSI         0.0302 
     56 H19        -9.3118    0.6899   12.4757 H         1 OSI         0.0302 
     57 H20       -10.7796    1.5324   11.8735 H         1 OSI         0.0302 
     58 H21        -8.5131    4.6908   11.9677 H         1 OSI         0.0544 
     59 H22        -9.4587    4.0589   13.3581 H         1 OSI         0.0544 
     60 H23        -7.5004    2.7621   14.1006 H         1 OSI         0.0349 
     61 H24        -6.5547    3.3941   12.7103 H         1 OSI         0.0349 
     62 H25        -6.0781    6.6487   13.9769 H         1 OSI         0.0304 
     63 H26        -7.0359    6.1035   12.5583 H         1 OSI         0.0304 
     64 H27        -5.4382    5.3584   12.9033 H         1 OSI         0.0304 
     65 H28        -5.8520    5.2993   15.8742 H         1 OSI         0.0304 
     66 H29        -5.1997    3.9345   14.9055 H         1 OSI         0.0304 
     67 H30        -6.6303    3.6827   15.9622 H         1 OSI         0.0304 
     68 H31        -3.6231    1.2814    8.6245 H         1 OSI         0.0398 
     69 H32        -4.4123    2.4239    9.7640 H         1 OSI         0.0398 
     70 H33        -4.5871    2.6588    7.9917 H         1 OSI         0.0398 
@<TRIPOS>BOND
     1    1    2 1    
     2    1   38 1    
     3    1   39 1    
     4    1   40 1    
     5    2   10 ar   
     6    2    3 ar   
     7    3    4 ar   
     8    3   41 1    
     9    4    5 ar   
    10    4   11 1    
    11    5   10 ar   
    12    5    6 ar   
    13    6    7 ar   
    14    6   42 1    
    15    7    8 ar   
    16    7   43 1    
    17    8    9 ar   
    18    8   44 1    
    19    9   10 ar   
    20    9   45 1    
    21   11   16 ar   
    22   11   12 ar   
    23   12   13 ar   
    24   13   14 ar   
    25   13   17 1    
    26   14   15 ar   
    27   15   16 ar   
    28   15   46 1    
    29   16   47 1    
    30   17   18 1    
    31   17   48 1    
    32   18   23 ar   
    33   18   19 ar   
    34   19   20 ar   
    35   19   36 1    
    36   20   21 ar   
    37   20   49 1    
    38   21   22 ar   
    39   21   29 1    
    40   22   23 ar   
    41   22   24 1    
    42   23   50 1    
    43   24   25 am   BACKBONE|DICT|INTERRES
    44   24   51 1    
    45   25   26 2    
    46   25   27 1    
    47   27   28 2    
    48   27   52 1    
    49   28   53 1    
    50   28   54 1    
    51   29   30 1    
    52   29   31 1    
    53   30   55 1    
    54   30   56 1    
    55   30   57 1    
    56   31   32 1    
    57   31   58 1    
    58   31   59 1    
    59   32   33 1    
    60   32   60 1    
    61   32   61 1    
    62   33   34 1    
    63   33   35 1    
    64   34   62 1    
    65   34   63 1    
    66   34   64 1    
    67   35   65 1    
    68   35   66 1    
    69   35   67 1    
    70   36   37 1    
    71   37   68 1    
    72   37   69 1    
    73   37   70 1    
@<TRIPOS>SUBSTRUCTURE
     1 OSI         1 GROUP             0       ****    0 ROOT    
@<TRIPOS>MOLECULE
~{N}-[2-[2-(dimethylamino)ethyl-methyl-amino]-4-methoxy-5-[[4-(1-methylindol-3-yl)pyrimidin-2-yl]amino]phenyl]prop-2-enamide
71   74    1
SMALL
USER_CHARGES


@<TRIPOS>ATOM
      1 C1        -11.2397    8.2942    3.0775 C.3       1 OSI         0.2081 
      2 N1        -10.3716    7.4871    3.9075 N.pl3     1 OSI        -0.4904 
      3 C2         -9.7322    6.3538    3.4818 C.ar      1 OSI         0.0617 
      4 C3         -9.0005    5.8589    4.5366 C.ar      1 OSI        -0.2376 
      5 C4         -9.2027    6.7245    5.6479 C.ar      1 OSI        -0.0628 
      6 C5         -8.7321    6.7433    6.9759 C.ar      1 OSI        -0.0876 
      7 C6         -9.1424    7.7725    7.8310 C.ar      1 OSI        -0.1522 
      8 C7        -10.0056    8.7705    7.3830 C.ar      1 OSI        -0.1170 
      9 C8        -10.4853    8.7726    6.0700 C.ar      1 OSI        -0.1385 
     10 C9        -10.0667    7.7375    5.2264 C.ar      1 OSI         0.0765 
     11 C10        -8.2053    4.6694    4.4284 C.ar      1 OSI         0.5706 
     12 N2         -8.0637    3.9524    5.5626 N.ar      1 OSI        -0.7523 
     13 C11        -7.3150    2.8396    5.4416 C.ar      1 OSI         0.8794 
     14 N3         -6.7109    2.3878    4.3261 N.ar      1 OSI        -0.7276 
     15 C12        -6.8941    3.1527    3.2299 C.ar      1 OSI         0.4618 
     16 C13        -7.6382    4.3147    3.2214 C.ar      1 OSI        -0.4065 
     17 N4         -7.1454    2.0639    6.6092 N.pl3     1 OSI        -0.7308 
     18 C14        -7.6128    2.2136    7.9282 C.ar      1 OSI         0.1858 
     19 C15        -6.8701    1.7262    9.0036 C.ar      1 OSI         0.0084 
     20 C16        -7.3450    1.8804   10.3061 C.ar      1 OSI        -0.1088 
     21 C17        -8.5626    2.5218   10.5331 C.ar      1 OSI         0.0455 
     22 C18        -9.3054    3.0091    9.4577 C.ar      1 OSI         0.1088 
     23 C19        -8.8304    2.8550    8.1552 C.ar      1 OSI        -0.1693 
     24 N5        -10.5273    3.6565    9.6615 N.am      1 OSI        -0.4594 
     25 C20       -11.3860    4.1981    8.6974 C.2       1 OSI         0.6607 
     26 O1        -11.2253    4.2064    7.4827 O.2       1 OSI        -0.5885 
     27 C21       -12.5967    4.8065    9.3216 C.2       1 OSI        -0.2404 
     28 C22       -13.5385    5.3771    8.5638 C.2       1 OSI        -0.1319 
     29 N6         -9.0240    2.6667   11.8606 N.4       1 OSI        -0.7102 
     30 C23        -9.8566    1.6454   12.4612 C.3       1 OSI         0.2005 
     31 C24        -8.6577    3.8316   12.6392 C.3       1 OSI         0.2106 
     32 C25        -7.3730    3.6110   13.4127 C.3       1 OSI         0.1398 
     33 N7         -7.0029    4.7637   14.1884 N.3       1 OSI        -0.7456 
     34 C26        -6.3474    5.7829   13.3541 C.3       1 OSI         0.1612 
     35 C27        -6.1152    4.3969   15.3029 C.3       1 OSI         0.1612 
     36 O2         -5.6781    1.0964    8.8026 O.3       1 OSI        -0.3488 
     37 C28        -4.5083    1.9117    8.7953 C.3       1 OSI         0.1129 
     38 H1        -11.2978    7.8541    2.0711 H         1 OSI         0.0514 
     39 H2        -10.8358    9.3150    3.0085 H         1 OSI         0.0514 
     40 H3        -12.2454    8.3270    3.5220 H         1 OSI         0.0514 
     41 H4         -9.8535    5.9989    2.4662 H         1 OSI         0.1770 
     42 H5         -8.0590    5.9728    7.3411 H         1 OSI         0.1380 
     43 H6         -8.7828    7.7922    8.8564 H         1 OSI         0.1297 
     44 H7        -10.3114    9.5603    8.0644 H         1 OSI         0.1297 
     45 H8        -11.1571    9.5522    5.7266 H         1 OSI         0.1315 
     46 H9         -6.4097    2.7934    2.3281 H         1 OSI         0.0298 
     47 H10        -7.7593    4.8995    2.3179 H         1 OSI         0.1589 
     48 H11        -6.5445    1.1432    6.5753 H         1 OSI         0.4662 
     49 H12        -6.7620    1.4983   11.1409 H         1 OSI         0.1439 
     50 H13        -9.4089    3.2354    7.3157 H         1 OSI         0.1989 
     51 H14       -10.9166    3.7880   10.6819 H         1 OSI         0.3330 
     52 H15       -12.7106    4.7827   10.4154 H         1 OSI         0.1312 
     53 H16       -14.4274    5.8229    9.0340 H         1 OSI         0.1300 
     54 H17       -13.4246    5.4009    7.4700 H         1 OSI         0.1300 
     55 H18       -10.1108    1.9382   13.4906 H         1 OSI         0.0302 
     56 H19        -9.3118    0.6899   12.4757 H         1 OSI         0.0302 
     57 H20       -10.7796    1.5324   11.8735 H         1 OSI         0.0302 
     58 H21        -8.5131    4.6908   11.9677 H         1 OSI         0.0544 
     59 H22        -9.4587    4.0589   13.3581 H         1 OSI         0.0544 
     60 H23        -7.5004    2.7621   14.1006 H         1 OSI         0.0349 
     61 H24        -6.5547    3.3941   12.7103 H         1 OSI         0.0349 
     62 H25        -6.0781    6.6487   13.9769 H         1 OSI         0.0304 
     63 H26        -7.0359    6.1035   12.5583 H         1 OSI         0.0304 
     64 H27        -5.4382    5.3584   12.9033 H         1 OSI         0.0304 
     65 H28        -5.8520    5.2993   15.8742 H         1 OSI         0.0304 
     66 H29        -5.1997    3.9345   14.9055 H         1 OSI         0.0304 
     67 H30        -6.6303    3.6827   15.9622 H         1 OSI         0.0304 
     68 H31        -3.6231    1.2814    8.6245 H         1 OSI         0.0398 
     69 H32        -4.4123    2.4239    9.7640 H         1 OSI         0.0398 
     70 H33        -4.5871    2.6588    7.9917 H         1 OSI         0.0398 
     71 H71        -9.9228    3.1826   11.4919 H         1 OSI         0.0000 
@<TRIPOS>BOND
     1    1    2 1    
     2    1   38 1    
     3    1   39 1    
     4    1   40 1    
     5    2   10 ar   
     6    2    3 ar   
     7    3    4 ar   
     8    3   41 1    
     9    4    5 ar   
    10    4   11 1    
    11    5   10 ar   
    12    5    6 ar   
    13    6    7 ar   
    14    6   42 1    
    15    7    8 ar   
    16    7   43 1    
    17    8    9 ar   
    18    8   44 1    
    19    9   10 ar   
    20    9   45 1    
    21   11   16 ar   
    22   11   12 ar   
    23   12   13 ar   
    24   13   14 ar   
    25   13   17 1    
    26   14   15 ar   
    27   15   16 ar   
    28   15   46 1    
    29   16   47 1    
    30   17   18 1    
    31   17   48 1    
    32   18   23 ar   
    33   18   19 ar   
    34   19   20 ar   
    35   19   36 1    
    36   20   21 ar   
    37   20   49 1    
    38   21   22 ar   
    39   21   29 1    
    40   22   23 ar   
    41   22   24 1    
    42   23   50 1    
    43   24   25 am   BACKBONE|DICT|INTERRES
    44   24   51 1    
    45   25   26 2    
    46   25   27 1    
    47   27   28 2    
    48   27   52 1    
    49   28   53 1    
    50   28   54 1    
    51   29   30 1    
    52   29   31 1    
    53   29   71 1    
    54   30   55 1    
    55   30   56 1    
    56   30   57 1    
    57   31   32 1    
    58   31   58 1    
    59   31   59 1    
    60   32   33 1    
    61   32   60 1    
    62   32   61 1    
    63   33   34 1    
    64   33   35 1    
    65   34   62 1    
    66   34   63 1    
    67   34   64 1    
    68   35   65 1    
    69   35   66 1    
    70   35   67 1    
    71   36   37 1    
    72   37   68 1    
    73   37   69 1    
    74   37   70 1    
@<TRIPOS>SUBSTRUCTURE
     1 OSI         1 GROUP             0       ****    0 ROOT    
@<TRIPOS>MOLECULE
~{N}-[2-[2-(dimethylamino)ethyl-methyl-amino]-4-methoxy-5-[[4-(1-methylindol-3-yl)pyrimidin-2-yl]amino]phenyl]prop-2-enamide
71   74    1
SMALL
USER_CHARGES


@<TRIPOS>ATOM
      1 C1        -11.2397    8.2942    3.0775 C.3       1 OSI         0.2081 
      2 N1        -10.3716    7.4871    3.9075 N.pl3     1 OSI        -0.4904 
      3 C2         -9.7322    6.3538    3.4818 C.ar      1 OSI         0.0617 
      4 C3         -9.0005    5.8589    4.5366 C.ar      1 OSI        -0.2376 
      5 C4         -9.2027    6.7245    5.6479 C.ar      1 OSI        -0.0628 
      6 C5         -8.7321    6.7433    6.9759 C.ar      1 OSI        -0.0876 
      7 C6         -9.1424    7.7725    7.8310 C.ar      1 OSI        -0.1522 
      8 C7        -10.0056    8.7705    7.3830 C.ar      1 OSI        -0.1170 
      9 C8        -10.4853    8.7726    6.0700 C.ar      1 OSI        -0.1385 
     10 C9        -10.0667    7.7375    5.2264 C.ar      1 OSI         0.0765 
     11 C10        -8.2053    4.6694    4.4284 C.ar      1 OSI         0.5706 
     12 N2         -8.0637    3.9524    5.5626 N.ar      1 OSI        -0.7523 
     13 C11        -7.3150    2.8396    5.4416 C.ar      1 OSI         0.8794 
     14 N3         -6.7109    2.3878    4.3261 N.ar      1 OSI        -0.7276 
     15 C12        -6.8941    3.1527    3.2299 C.ar      1 OSI         0.4618 
     16 C13        -7.6382    4.3147    3.2214 C.ar      1 OSI        -0.4065 
     17 N4         -7.1454    2.0639    6.6092 N.pl3     1 OSI        -0.7308 
     18 C14        -7.6128    2.2136    7.9282 C.ar      1 OSI         0.1858 
     19 C15        -6.8701    1.7262    9.0036 C.ar      1 OSI         0.0084 
     20 C16        -7.3450    1.8804   10.3061 C.ar      1 OSI        -0.1088 
     21 C17        -8.5626    2.5218   10.5331 C.ar      1 OSI         0.0455 
     22 C18        -9.3054    3.0091    9.4577 C.ar      1 OSI         0.1088 
     23 C19        -8.8304    2.8550    8.1552 C.ar      1 OSI        -0.1693 
     24 N5        -10.5273    3.6565    9.6615 N.2       1 OSI        -0.4594 
     25 C20       -11.3860    4.1981    8.6974 C.2       1 OSI         0.6607 
     26 O1        -11.2253    4.2064    7.4827 O.2       1 OSI        -0.5885 
     27 C21       -12.5967    4.8065    9.3216 C.2       1 OSI        -0.2404 
     28 C22       -13.5385    5.3771    8.5638 C.2       1 OSI        -0.1319 
     29 N6         -9.0240    2.6667   11.8606 N.pl3     1 OSI        -0.7102 
     30 C23        -9.8566    1.6454   12.4612 C.3       1 OSI         0.2005 
     31 C24        -8.6577    3.8316   12.6392 C.3       1 OSI         0.2106 
     32 C25        -7.3730    3.6110   13.4127 C.3       1 OSI         0.1398 
     33 N7         -7.0029    4.7637   14.1884 N.4       1 OSI        -0.7456 
     34 C26        -6.3474    5.7829   13.3541 C.3       1 OSI         0.1612 
     35 C27        -6.1152    4.3969   15.3029 C.3       1 OSI         0.1612 
     36 O2         -5.6781    1.0964    8.8026 O.3       1 OSI        -0.3488 
     37 C28        -4.5083    1.9117    8.7953 C.3       1 OSI         0.1129 
     38 H1        -11.2978    7.8541    2.0711 H         1 OSI         0.0514 
     39 H2        -10.8358    9.3150    3.0085 H         1 OSI         0.0514 
     40 H3        -12.2454    8.3270    3.5220 H         1 OSI         0.0514 
     41 H4         -9.8535    5.9989    2.4662 H         1 OSI         0.1770 
     42 H5         -8.0590    5.9728    7.3411 H         1 OSI         0.1380 
     43 H6         -8.7828    7.7922    8.8564 H         1 OSI         0.1297 
     44 H7        -10.3114    9.5603    8.0644 H         1 OSI         0.1297 
     45 H8        -11.1571    9.5522    5.7266 H         1 OSI         0.1315 
     46 H9         -6.4097    2.7934    2.3281 H         1 OSI         0.0298 
     47 H10        -7.7593    4.8995    2.3179 H         1 OSI         0.1589 
     48 H11        -6.5445    1.1432    6.5753 H         1 OSI         0.4662 
     49 H12        -6.7620    1.4983   11.1409 H         1 OSI         0.1439 
     50 H13        -9.4089    3.2354    7.3157 H         1 OSI         0.1989 
     51 H15       -12.7106    4.7827   10.4154 H         1 OSI         0.1312 
     52 H16       -14.4274    5.8229    9.0340 H         1 OSI         0.1300 
     53 H17       -13.4246    5.4009    7.4700 H         1 OSI         0.1300 
     54 H18       -10.1108    1.9382   13.4906 H         1 OSI         0.0302 
     55 H19        -9.3118    0.6899   12.4757 H         1 OSI         0.0302 
     56 H20       -10.7796    1.5324   11.8735 H         1 OSI         0.0302 
     57 H21        -8.5131    4.6908   11.9677 H         1 OSI         0.0544 
     58 H22        -9.4587    4.0589   13.3581 H         1 OSI         0.0544 
     59 H23        -7.5004    2.7621   14.1006 H         1 OSI         0.0349 
     60 H24        -6.5547    3.3941   12.7103 H         1 OSI         0.0349 
     61 H25        -6.0781    6.6487   13.9769 H         1 OSI         0.0304 
     62 H26        -7.0359    6.1035   12.5583 H         1 OSI         0.0304 
     63 H27        -5.4382    5.3584   12.9033 H         1 OSI         0.0304 
     64 H28        -5.8520    5.2993   15.8742 H         1 OSI         0.0304 
     65 H29        -5.1997    3.9345   14.9055 H         1 OSI         0.0304 
     66 H30        -6.6303    3.6827   15.9622 H         1 OSI         0.0304 
     67 H31        -3.6231    1.2814    8.6245 H         1 OSI         0.0398 
     68 H32        -4.4123    2.4239    9.7640 H         1 OSI         0.0398 
     69 H33        -4.5871    2.6588    7.9917 H         1 OSI         0.0398 
     70 H70        -7.9460    5.1659   14.5868 H         1 OSI         0.0000 
     71 H71       -11.9817    4.6680    6.8310 H         1 OSI         0.0000 
@<TRIPOS>BOND
     1    1    2 1    
     2    1   38 1    
     3    1   39 1    
     4    1   40 1    
     5    2   10 ar   
     6    2    3 ar   
     7    3    4 ar   
     8    3   41 1    
     9    4    5 ar   
    10    4   11 1    
    11    5   10 ar   
    12    5    6 ar   
    13    6    7 ar   
    14    6   42 1    
    15    7    8 ar   
    16    7   43 1    
    17    8    9 ar   
    18    8   44 1    
    19    9   10 ar   
    20    9   45 1    
    21   11   16 ar   
    22   11   12 ar   
    23   12   13 ar   
    24   13   14 ar   
    25   13   17 1    
    26   14   15 ar   
    27   15   16 ar   
    28   15   46 1    
    29   16   47 1    
    30   17   18 1    
    31   17   48 1    
    32   18   23 ar   
    33   18   19 ar   
    34   19   20 ar   
    35   19   36 1    
    36   20   21 ar   
    37   20   49 1    
    38   21   22 ar   
    39   21   29 1    
    40   22   23 ar   
    41   22   24 1    
    42   23   50 1    
    43   24   25 1    
    44   25   26 2    
    45   25   27 1    
    46   26   71 1    
    47   27   28 2    
    48   27   51 1    
    49   28   52 1    
    50   28   53 1    
    51   29   30 1    
    52   29   31 1    
    53   30   54 1    
    54   30   55 1    
    55   30   56 1    
    56   31   32 1    
    57   31   57 1    
    58   31   58 1    
    59   32   33 1    
    60   32   59 1    
    61   32   60 1    
    62   33   34 1    
    63   33   35 1    
    64   33   70 1    
    65   34   61 1    
    66   34   62 1    
    67   34   63 1    
    68   35   64 1    
    69   35   65 1    
    70   35   66 1    
    71   36   37 1    
    72   37   67 1    
    73   37   68 1    
    74   37   69 1    
@<TRIPOS>SUBSTRUCTURE
     1 OSI         1 GROUP             0       ****    0 ROOT    
@<TRIPOS>MOLECULE
~{N}-[2-[2-(dimethylamino)ethyl-methyl-amino]-4-methoxy-5-[[4-(1-methylindol-3-yl)pyrimidin-2-yl]amino]phenyl]prop-2-enamide
71   74    1
SMALL
USER_CHARGES


@<TRIPOS>ATOM
      1 C1        -11.2397    8.2942    3.0775 C.3       1 OSI         0.2081 
      2 N1        -10.3716    7.4871    3.9075 N.pl3     1 OSI        -0.4904 
      3 C2         -9.7322    6.3538    3.4818 C.ar      1 OSI         0.0617 
      4 C3         -9.0005    5.8589    4.5366 C.ar      1 OSI        -0.2376 
      5 C4         -9.2027    6.7245    5.6479 C.ar      1 OSI        -0.0628 
      6 C5         -8.7321    6.7433    6.9759 C.ar      1 OSI        -0.0876 
      7 C6         -9.1424    7.7725    7.8310 C.ar      1 OSI        -0.1522 
      8 C7        -10.0056    8.7705    7.3830 C.ar      1 OSI        -0.1170 
      9 C8        -10.4853    8.7726    6.0700 C.ar      1 OSI        -0.1385 
     10 C9        -10.0667    7.7375    5.2264 C.ar      1 OSI         0.0765 
     11 C10        -8.2053    4.6694    4.4284 C.ar      1 OSI         0.5706 
     12 N2         -8.0637    3.9524    5.5626 N.ar      1 OSI        -0.7523 
     13 C11        -7.3150    2.8396    5.4416 C.ar      1 OSI         0.8794 
     14 N3         -6.7109    2.3878    4.3261 N.ar      1 OSI        -0.7276 
     15 C12        -6.8941    3.1527    3.2299 C.ar      1 OSI         0.4618 
     16 C13        -7.6382    4.3147    3.2214 C.ar      1 OSI        -0.4065 
     17 N4         -7.1454    2.0639    6.6092 N.pl3     1 OSI        -0.7308 
     18 C14        -7.6128    2.2136    7.9282 C.ar      1 OSI         0.1858 
     19 C15        -6.8701    1.7262    9.0036 C.ar      1 OSI         0.0084 
     20 C16        -7.3450    1.8804   10.3061 C.ar      1 OSI        -0.1088 
     21 C17        -8.5626    2.5218   10.5331 C.ar      1 OSI         0.0455 
     22 C18        -9.3054    3.0091    9.4577 C.ar      1 OSI         0.1088 
     23 C19        -8.8304    2.8550    8.1552 C.ar      1 OSI        -0.1693 
     24 N5        -10.5273    3.6565    9.6615 N.2       1 OSI        -0.4594 
     25 C20       -11.3860    4.1981    8.6974 C.2       1 OSI         0.6607 
     26 O1        -11.2253    4.2064    7.4827 O.2       1 OSI        -0.5885 
     27 C21       -12.5967    4.8065    9.3216 C.2       1 OSI        -0.2404 
     28 C22       -13.5385    5.3771    8.5638 C.2       1 OSI        -0.1319 
     29 N6         -9.0240    2.6667   11.8606 N.4       1 OSI        -0.7102 
     30 C23        -9.8566    1.6454   12.4612 C.3       1 OSI         0.2005 
     31 C24        -8.6577    3.8316   12.6392 C.3       1 OSI         0.2106 
     32 C25        -7.3730    3.6110   13.4127 C.3       1 OSI         0.1398 
     33 N7         -7.0029    4.7637   14.1884 N.3       1 OSI        -0.7456 
     34 C26        -6.3474    5.7829   13.3541 C.3       1 OSI         0.1612 
     35 C27        -6.1152    4.3969   15.3029 C.3       1 OSI         0.1612 
     36 O2         -5.6781    1.0964    8.8026 O.3       1 OSI        -0.3488 
     37 C28        -4.5083    1.9117    8.7953 C.3       1 OSI         0.1129 
     38 H1        -11.2978    7.8541    2.0711 H         1 OSI         0.0514 
     39 H2        -10.8358    9.3150    3.0085 H         1 OSI         0.0514 
     40 H3        -12.2454    8.3270    3.5220 H         1 OSI         0.0514 
     41 H4         -9.8535    5.9989    2.4662 H         1 OSI         0.1770 
     42 H5         -8.0590    5.9728    7.3411 H         1 OSI         0.1380 
     43 H6         -8.7828    7.7922    8.8564 H         1 OSI         0.1297 
     44 H7        -10.3114    9.5603    8.0644 H         1 OSI         0.1297 
     45 H8        -11.1571    9.5522    5.7266 H         1 OSI         0.1315 
     46 H9         -6.4097    2.7934    2.3281 H         1 OSI         0.0298 
     47 H10        -7.7593    4.8995    2.3179 H         1 OSI         0.1589 
     48 H11        -6.5445    1.1432    6.5753 H         1 OSI         0.4662 
     49 H12        -6.7620    1.4983   11.1409 H         1 OSI         0.1439 
     50 H13        -9.4089    3.2354    7.3157 H         1 OSI         0.1989 
     51 H15       -12.7106    4.7827   10.4154 H         1 OSI         0.1312 
     52 H16       -14.4274    5.8229    9.0340 H         1 OSI         0.1300 
     53 H17       -13.4246    5.4009    7.4700 H         1 OSI         0.1300 
     54 H18       -10.1108    1.9382   13.4906 H         1 OSI         0.0302 
     55 H19        -9.3118    0.6899   12.4757 H         1 OSI         0.0302 
     56 H20       -10.7796    1.5324   11.8735 H         1 OSI         0.0302 
     57 H21        -8.5131    4.6908   11.9677 H         1 OSI         0.0544 
     58 H22        -9.4587    4.0589   13.3581 H         1 OSI         0.0544 
     59 H23        -7.5004    2.7621   14.1006 H         1 OSI         0.0349 
     60 H24        -6.5547    3.3941   12.7103 H         1 OSI         0.0349 
     61 H25        -6.0781    6.6487   13.9769 H         1 OSI         0.0304 
     62 H26        -7.0359    6.1035   12.5583 H         1 OSI         0.0304 
     63 H27        -5.4382    5.3584   12.9033 H         1 OSI         0.0304 
     64 H28        -5.8520    5.2993   15.8742 H         1 OSI         0.0304 
     65 H29        -5.1997    3.9345   14.9055 H         1 OSI         0.0304 
     66 H30        -6.6303    3.6827   15.9622 H         1 OSI         0.0304 
     67 H31        -3.6231    1.2814    8.6245 H         1 OSI         0.0398 
     68 H32        -4.4123    2.4239    9.7640 H         1 OSI         0.0398 
     69 H33        -4.5871    2.6588    7.9917 H         1 OSI         0.0398 
     70 H70       -11.9817    4.6680    6.8310 H         1 OSI         0.0000 
     71 H71        -9.9228    3.1826   11.4919 H         1 OSI         0.0000 
@<TRIPOS>BOND
     1    1    2 1    
     2    1   38 1    
     3    1   39 1    
     4    1   40 1    
     5    2   10 ar   
     6    2    3 ar   
     7    3    4 ar   
     8    3   41 1    
     9    4    5 ar   
    10    4   11 1    
    11    5   10 ar   
    12    5    6 ar   
    13    6    7 ar   
    14    6   42 1    
    15    7    8 ar   
    16    7   43 1    
    17    8    9 ar   
    18    8   44 1    
    19    9   10 ar   
    20    9   45 1    
    21   11   16 ar   
    22   11   12 ar   
    23   12   13 ar   
    24   13   14 ar   
    25   13   17 1    
    26   14   15 ar   
    27   15   16 ar   
    28   15   46 1    
    29   16   47 1    
    30   17   18 1    
    31   17   48 1    
    32   18   23 ar   
    33   18   19 ar   
    34   19   20 ar   
    35   19   36 1    
    36   20   21 ar   
    37   20   49 1    
    38   21   22 ar   
    39   21   29 1    
    40   22   23 ar   
    41   22   24 1    
    42   23   50 1    
    43   24   25 1    
    44   25   26 2    
    45   25   27 1    
    46   26   70 1    
    47   27   28 2    
    48   27   51 1    
    49   28   52 1    
    50   28   53 1    
    51   29   30 1    
    52   29   31 1    
    53   29   71 1    
    54   30   54 1    
    55   30   55 1    
    56   30   56 1    
    57   31   32 1    
    58   31   57 1    
    59   31   58 1    
    60   32   33 1    
    61   32   59 1    
    62   32   60 1    
    63   33   34 1    
    64   33   35 1    
    65   34   61 1    
    66   34   62 1    
    67   34   63 1    
    68   35   64 1    
    69   35   65 1    
    70   35   66 1    
    71   36   37 1    
    72   37   67 1    
    73   37   68 1    
    74   37   69 1    
@<TRIPOS>SUBSTRUCTURE
     1 OSI         1 GROUP             0       ****    0 ROOT    
@<TRIPOS>MOLECULE
~{N}-[2-[2-(dimethylamino)ethyl-methyl-amino]-4-methoxy-5-[[4-(1-methylindol-3-yl)pyrimidin-2-yl]amino]phenyl]prop-2-enamide
72   75    1
SMALL
USER_CHARGES


@<TRIPOS>ATOM
      1 C1        -11.2397    8.2942    3.0775 C.3       1 OSI         0.2081 
      2 N1        -10.3716    7.4871    3.9075 N.pl3     1 OSI        -0.4904 
      3 C2         -9.7322    6.3538    3.4818 C.ar      1 OSI         0.0617 
      4 C3         -9.0005    5.8589    4.5366 C.ar      1 OSI        -0.2376 
      5 C4         -9.2027    6.7245    5.6479 C.ar      1 OSI        -0.0628 
      6 C5         -8.7321    6.7433    6.9759 C.ar      1 OSI        -0.0876 
      7 C6         -9.1424    7.7725    7.8310 C.ar      1 OSI        -0.1522 
      8 C7        -10.0056    8.7705    7.3830 C.ar      1 OSI        -0.1170 
      9 C8        -10.4853    8.7726    6.0700 C.ar      1 OSI        -0.1385 
     10 C9        -10.0667    7.7375    5.2264 C.ar      1 OSI         0.0765 
     11 C10        -8.2053    4.6694    4.4284 C.ar      1 OSI         0.5706 
     12 N2         -8.0637    3.9524    5.5626 N.ar      1 OSI        -0.7523 
     13 C11        -7.3150    2.8396    5.4416 C.ar      1 OSI         0.8794 
     14 N3         -6.7109    2.3878    4.3261 N.ar      1 OSI        -0.7276 
     15 C12        -6.8941    3.1527    3.2299 C.ar      1 OSI         0.4618 
     16 C13        -7.6382    4.3147    3.2214 C.ar      1 OSI        -0.4065 
     17 N4         -7.1454    2.0639    6.6092 N.pl3     1 OSI        -0.7308 
     18 C14        -7.6128    2.2136    7.9282 C.ar      1 OSI         0.1858 
     19 C15        -6.8701    1.7262    9.0036 C.ar      1 OSI         0.0084 
     20 C16        -7.3450    1.8804   10.3061 C.ar      1 OSI        -0.1088 
     21 C17        -8.5626    2.5218   10.5331 C.ar      1 OSI         0.0455 
     22 C18        -9.3054    3.0091    9.4577 C.ar      1 OSI         0.1088 
     23 C19        -8.8304    2.8550    8.1552 C.ar      1 OSI        -0.1693 
     24 N5        -10.5273    3.6565    9.6615 N.am      1 OSI        -0.4594 
     25 C20       -11.3860    4.1981    8.6974 C.2       1 OSI         0.6607 
     26 O1        -11.2253    4.2064    7.4827 O.2       1 OSI        -0.5885 
     27 C21       -12.5967    4.8065    9.3216 C.2       1 OSI        -0.2404 
     28 C22       -13.5385    5.3771    8.5638 C.2       1 OSI        -0.1319 
     29 N6         -9.0240    2.6667   11.8606 N.pl3     1 OSI        -0.7102 
     30 C23        -9.8566    1.6454   12.4612 C.3       1 OSI         0.2005 
     31 C24        -8.6577    3.8316   12.6392 C.3       1 OSI         0.2106 
     32 C25        -7.3730    3.6110   13.4127 C.3       1 OSI         0.1398 
     33 N7         -7.0029    4.7637   14.1884 N.4       1 OSI        -0.7456 
     34 C26        -6.3474    5.7829   13.3541 C.3       1 OSI         0.1612 
     35 C27        -6.1152    4.3969   15.3029 C.3       1 OSI         0.1612 
     36 O2         -5.6781    1.0964    8.8026 O.3       1 OSI        -0.3488 
     37 C28        -4.5083    1.9117    8.7953 C.3       1 OSI         0.1129 
     38 H1        -11.2978    7.8541    2.0711 H         1 OSI         0.0514 
     39 H2        -10.8358    9.3150    3.0085 H         1 OSI         0.0514 
     40 H3        -12.2454    8.3270    3.5220 H         1 OSI         0.0514 
     41 H4         -9.8535    5.9989    2.4662 H         1 OSI         0.1770 
     42 H5         -8.0590    5.9728    7.3411 H         1 OSI         0.1380 
     43 H6         -8.7828    7.7922    8.8564 H         1 OSI         0.1297 
     44 H7        -10.3114    9.5603    8.0644 H         1 OSI         0.1297 
     45 H8        -11.1571    9.5522    5.7266 H         1 OSI         0.1315 
     46 H9         -6.4097    2.7934    2.3281 H         1 OSI         0.0298 
     47 H10        -7.7593    4.8995    2.3179 H         1 OSI         0.1589 
     48 H11        -6.5445    1.1432    6.5753 H         1 OSI         0.4662 
     49 H12        -6.7620    1.4983   11.1409 H         1 OSI         0.1439 
     50 H13        -9.4089    3.2354    7.3157 H         1 OSI         0.1989 
     51 H14       -10.9166    3.7880   10.6819 H         1 OSI         0.3330 
     52 H15       -12.7106    4.7827   10.4154 H         1 OSI         0.1312 
     53 H16       -14.4274    5.8229    9.0340 H         1 OSI         0.1300 
     54 H17       -13.4246    5.4009    7.4700 H         1 OSI         0.1300 
     55 H18       -10.1108    1.9382   13.4906 H         1 OSI         0.0302 
     56 H19        -9.3118    0.6899   12.4757 H         1 OSI         0.0302 
     57 H20       -10.7796    1.5324   11.8735 H         1 OSI         0.0302 
     58 H21        -8.5131    4.6908   11.9677 H         1 OSI         0.0544 
     59 H22        -9.4587    4.0589   13.3581 H         1 OSI         0.0544 
     60 H23        -7.5004    2.7621   14.1006 H         1 OSI         0.0349 
     61 H24        -6.5547    3.3941   12.7103 H         1 OSI         0.0349 
     62 H25        -6.0781    6.6487   13.9769 H         1 OSI         0.0304 
     63 H26        -7.0359    6.1035   12.5583 H         1 OSI         0.0304 
     64 H27        -5.4382    5.3584   12.9033 H         1 OSI         0.0304 
     65 H28        -5.8520    5.2993   15.8742 H         1 OSI         0.0304 
     66 H29        -5.1997    3.9345   14.9055 H         1 OSI         0.0304 
     67 H30        -6.6303    3.6827   15.9622 H         1 OSI         0.0304 
     68 H31        -3.6231    1.2814    8.6245 H         1 OSI         0.0398 
     69 H32        -4.4123    2.4239    9.7640 H         1 OSI         0.0398 
     70 H33        -4.5871    2.6588    7.9917 H         1 OSI         0.0398 
     71 H71        -7.9460    5.1659   14.5868 H         1 OSI         0.0000 
     72 H72       -11.9817    4.6680    6.8310 H         1 OSI         0.0000 
@<TRIPOS>BOND
     1    1    2 1    
     2    1   38 1    
     3    1   39 1    
     4    1   40 1    
     5    2   10 ar   
     6    2    3 ar   
     7    3    4 ar   
     8    3   41 1    
     9    4    5 ar   
    10    4   11 1    
    11    5   10 ar   
    12    5    6 ar   
    13    6    7 ar   
    14    6   42 1    
    15    7    8 ar   
    16    7   43 1    
    17    8    9 ar   
    18    8   44 1    
    19    9   10 ar   
    20    9   45 1    
    21   11   16 ar   
    22   11   12 ar   
    23   12   13 ar   
    24   13   14 ar   
    25   13   17 1    
    26   14   15 ar   
    27   15   16 ar   
    28   15   46 1    
    29   16   47 1    
    30   17   18 1    
    31   17   48 1    
    32   18   23 ar   
    33   18   19 ar   
    34   19   20 ar   
    35   19   36 1    
    36   20   21 ar   
    37   20   49 1    
    38   21   22 ar   
    39   21   29 1    
    40   22   23 ar   
    41   22   24 1    
    42   23   50 1    
    43   24   25 am   BACKBONE|DICT|INTERRES
    44   24   51 1    
    45   25   26 2    
    46   25   27 1    
    47   26   72 1    
    48   27   28 2    
    49   27   52 1    
    50   28   53 1    
    51   28   54 1    
    52   29   30 1    
    53   29   31 1    
    54   30   55 1    
    55   30   56 1    
    56   30   57 1    
    57   31   32 1    
    58   31   58 1    
    59   31   59 1    
    60   32   33 1    
    61   32   60 1    
    62   32   61 1    
    63   33   34 1    
    64   33   35 1    
    65   33   71 1    
    66   34   62 1    
    67   34   63 1    
    68   34   64 1    
    69   35   65 1    
    70   35   66 1    
    71   35   67 1    
    72   36   37 1    
    73   37   68 1    
    74   37   69 1    
    75   37   70 1    
@<TRIPOS>SUBSTRUCTURE
     1 OSI         1 GROUP             0       ****    0 ROOT    
@<TRIPOS>MOLECULE
~{N}-[2-[2-(dimethylamino)ethyl-methyl-amino]-4-methoxy-5-[[4-(1-methylindol-3-yl)pyrimidin-2-yl]amino]phenyl]prop-2-enamide
72   75    1
SMALL
USER_CHARGES


@<TRIPOS>ATOM
      1 C1        -11.2397    8.2942    3.0775 C.3       1 OSI         0.2081 
      2 N1        -10.3716    7.4871    3.9075 N.pl3     1 OSI        -0.4904 
      3 C2         -9.7322    6.3538    3.4818 C.ar      1 OSI         0.0617 
      4 C3         -9.0005    5.8589    4.5366 C.ar      1 OSI        -0.2376 
      5 C4         -9.2027    6.7245    5.6479 C.ar      1 OSI        -0.0628 
      6 C5         -8.7321    6.7433    6.9759 C.ar      1 OSI        -0.0876 
      7 C6         -9.1424    7.7725    7.8310 C.ar      1 OSI        -0.1522 
      8 C7        -10.0056    8.7705    7.3830 C.ar      1 OSI        -0.1170 
      9 C8        -10.4853    8.7726    6.0700 C.ar      1 OSI        -0.1385 
     10 C9        -10.0667    7.7375    5.2264 C.ar      1 OSI         0.0765 
     11 C10        -8.2053    4.6694    4.4284 C.ar      1 OSI         0.5706 
     12 N2         -8.0637    3.9524    5.5626 N.ar      1 OSI        -0.7523 
     13 C11        -7.3150    2.8396    5.4416 C.ar      1 OSI         0.8794 
     14 N3         -6.7109    2.3878    4.3261 N.ar      1 OSI        -0.7276 
     15 C12        -6.8941    3.1527    3.2299 C.ar      1 OSI         0.4618 
     16 C13        -7.6382    4.3147    3.2214 C.ar      1 OSI        -0.4065 
     17 N4         -7.1454    2.0639    6.6092 N.pl3     1 OSI        -0.7308 
     18 C14        -7.6128    2.2136    7.9282 C.ar      1 OSI         0.1858 
     19 C15        -6.8701    1.7262    9.0036 C.ar      1 OSI         0.0084 
     20 C16        -7.3450    1.8804   10.3061 C.ar      1 OSI        -0.1088 
     21 C17        -8.5626    2.5218   10.5331 C.ar      1 OSI         0.0455 
     22 C18        -9.3054    3.0091    9.4577 C.ar      1 OSI         0.1088 
     23 C19        -8.8304    2.8550    8.1552 C.ar      1 OSI        -0.1693 
     24 N5        -10.5273    3.6565    9.6615 N.am      1 OSI        -0.4594 
     25 C20       -11.3860    4.1981    8.6974 C.2       1 OSI         0.6607 
     26 O1        -11.2253    4.2064    7.4827 O.2       1 OSI        -0.5885 
     27 C21       -12.5967    4.8065    9.3216 C.2       1 OSI        -0.2404 
     28 C22       -13.5385    5.3771    8.5638 C.2       1 OSI        -0.1319 
     29 N6         -9.0240    2.6667   11.8606 N.4       1 OSI        -0.7102 
     30 C23        -9.8566    1.6454   12.4612 C.3       1 OSI         0.2005 
     31 C24        -8.6577    3.8316   12.6392 C.3       1 OSI         0.2106 
     32 C25        -7.3730    3.6110   13.4127 C.3       1 OSI         0.1398 
     33 N7         -7.0029    4.7637   14.1884 N.4       1 OSI        -0.7456 
     34 C26        -6.3474    5.7829   13.3541 C.3       1 OSI         0.1612 
     35 C27        -6.1152    4.3969   15.3029 C.3       1 OSI         0.1612 
     36 O2         -5.6781    1.0964    8.8026 O.3       1 OSI        -0.3488 
     37 C28        -4.5083    1.9117    8.7953 C.3       1 OSI         0.1129 
     38 H1        -11.2978    7.8541    2.0711 H         1 OSI         0.0514 
     39 H2        -10.8358    9.3150    3.0085 H         1 OSI         0.0514 
     40 H3        -12.2454    8.3270    3.5220 H         1 OSI         0.0514 
     41 H4         -9.8535    5.9989    2.4662 H         1 OSI         0.1770 
     42 H5         -8.0590    5.9728    7.3411 H         1 OSI         0.1380 
     43 H6         -8.7828    7.7922    8.8564 H         1 OSI         0.1297 
     44 H7        -10.3114    9.5603    8.0644 H         1 OSI         0.1297 
     45 H8        -11.1571    9.5522    5.7266 H         1 OSI         0.1315 
     46 H9         -6.4097    2.7934    2.3281 H         1 OSI         0.0298 
     47 H10        -7.7593    4.8995    2.3179 H         1 OSI         0.1589 
     48 H11        -6.5445    1.1432    6.5753 H         1 OSI         0.4662 
     49 H12        -6.7620    1.4983   11.1409 H         1 OSI         0.1439 
     50 H13        -9.4089    3.2354    7.3157 H         1 OSI         0.1989 
     51 H14       -10.9166    3.7880   10.6819 H         1 OSI         0.3330 
     52 H15       -12.7106    4.7827   10.4154 H         1 OSI         0.1312 
     53 H16       -14.4274    5.8229    9.0340 H         1 OSI         0.1300 
     54 H17       -13.4246    5.4009    7.4700 H         1 OSI         0.1300 
     55 H18       -10.1108    1.9382   13.4906 H         1 OSI         0.0302 
     56 H19        -9.3118    0.6899   12.4757 H         1 OSI         0.0302 
     57 H20       -10.7796    1.5324   11.8735 H         1 OSI         0.0302 
     58 H21        -8.5131    4.6908   11.9677 H         1 OSI         0.0544 
     59 H22        -9.4587    4.0589   13.3581 H         1 OSI         0.0544 
     60 H23        -7.5004    2.7621   14.1006 H         1 OSI         0.0349 
     61 H24        -6.5547    3.3941   12.7103 H         1 OSI         0.0349 
     62 H25        -6.0781    6.6487   13.9769 H         1 OSI         0.0304 
     63 H26        -7.0359    6.1035   12.5583 H         1 OSI         0.0304 
     64 H27        -5.4382    5.3584   12.9033 H         1 OSI         0.0304 
     65 H28        -5.8520    5.2993   15.8742 H         1 OSI         0.0304 
     66 H29        -5.1997    3.9345   14.9055 H         1 OSI         0.0304 
     67 H30        -6.6303    3.6827   15.9622 H         1 OSI         0.0304 
     68 H31        -3.6231    1.2814    8.6245 H         1 OSI         0.0398 
     69 H32        -4.4123    2.4239    9.7640 H         1 OSI         0.0398 
     70 H33        -4.5871    2.6588    7.9917 H         1 OSI         0.0398 
     71 H71        -7.9460    5.1659   14.5868 H         1 OSI         0.0000 
     72 H72        -9.9228    3.1826   11.4919 H         1 OSI         0.0000 
@<TRIPOS>BOND
     1    1    2 1    
     2    1   38 1    
     3    1   39 1    
     4    1   40 1    
     5    2   10 ar   
     6    2    3 ar   
     7    3    4 ar   
     8    3   41 1    
     9    4    5 ar   
    10    4   11 1    
    11    5   10 ar   
    12    5    6 ar   
    13    6    7 ar   
    14    6   42 1    
    15    7    8 ar   
    16    7   43 1    
    17    8    9 ar   
    18    8   44 1    
    19    9   10 ar   
    20    9   45 1    
    21   11   16 ar   
    22   11   12 ar   
    23   12   13 ar   
    24   13   14 ar   
    25   13   17 1    
    26   14   15 ar   
    27   15   16 ar   
    28   15   46 1    
    29   16   47 1    
    30   17   18 1    
    31   17   48 1    
    32   18   23 ar   
    33   18   19 ar   
    34   19   20 ar   
    35   19   36 1    
    36   20   21 ar   
    37   20   49 1    
    38   21   22 ar   
    39   21   29 1    
    40   22   23 ar   
    41   22   24 1    
    42   23   50 1    
    43   24   25 am   BACKBONE|DICT|INTERRES
    44   24   51 1    
    45   25   26 2    
    46   25   27 1    
    47   27   28 2    
    48   27   52 1    
    49   28   53 1    
    50   28   54 1    
    51   29   30 1    
    52   29   31 1    
    53   29   72 1    
    54   30   55 1    
    55   30   56 1    
    56   30   57 1    
    57   31   32 1    
    58   31   58 1    
    59   31   59 1    
    60   32   33 1    
    61   32   60 1    
    62   32   61 1    
    63   33   34 1    
    64   33   35 1    
    65   33   71 1    
    66   34   62 1    
    67   34   63 1    
    68   34   64 1    
    69   35   65 1    
    70   35   66 1    
    71   35   67 1    
    72   36   37 1    
    73   37   68 1    
    74   37   69 1    
    75   37   70 1    
@<TRIPOS>SUBSTRUCTURE
     1 OSI         1 GROUP             0       ****    0 ROOT    
