~{N}-[2-[2-(dimethylamino)ethyl-methyl-amino]-4-methoxy-5-[[4-(1-methylindol-3-yl)pyrimidin-2-yl]amino]phenyl]prop-2-enamide
                    3D
 Structure written by MMmdl.
 71 74  0  0  1  0            999 V2000
  -11.2397    8.2942    3.0775 C   0  0  0  0  0  0
  -10.3716    7.4871    3.9075 N   0  0  0  0  0  0
   -9.7322    6.3538    3.4818 C   0  0  0  0  0  0
   -9.0005    5.8589    4.5366 C   0  0  0  0  0  0
   -9.2027    6.7245    5.6479 C   0  0  0  0  0  0
   -8.7321    6.7433    6.9759 C   0  0  0  0  0  0
   -9.1424    7.7725    7.8310 C   0  0  0  0  0  0
  -10.0056    8.7705    7.3830 C   0  0  0  0  0  0
  -10.4853    8.7726    6.0700 C   0  0  0  0  0  0
  -10.0667    7.7375    5.2264 C   0  0  0  0  0  0
   -8.2053    4.6694    4.4284 C   0  0  0  0  0  0
   -8.0637    3.9524    5.5626 N   0  0  0  0  0  0
   -7.3151    2.8396    5.4416 C   0  0  0  0  0  0
   -6.7109    2.3878    4.3261 N   0  0  0  0  0  0
   -6.8941    3.1527    3.2299 C   0  0  0  0  0  0
   -7.6382    4.3147    3.2214 C   0  0  0  0  0  0
   -7.1454    2.0639    6.6092 N   0  0  0  0  0  0
   -7.6128    2.2136    7.9282 C   0  0  0  0  0  0
   -6.8701    1.7262    9.0036 C   0  0  0  0  0  0
   -7.3450    1.8804   10.3061 C   0  0  0  0  0  0
   -8.5626    2.5218   10.5331 C   0  0  0  0  0  0
   -9.3054    3.0091    9.4577 C   0  0  0  0  0  0
   -8.8304    2.8550    8.1552 C   0  0  0  0  0  0
  -10.5273    3.6565    9.6615 N   0  0  0  0  0  0
  -11.3860    4.1981    8.6974 C   0  0  0  0  0  0
  -11.2253    4.2064    7.4827 O   0  0  0  0  0  0
  -12.5967    4.8065    9.3216 C   0  0  0  0  0  0
  -13.5385    5.3771    8.5638 C   0  0  0  0  0  0
   -9.0240    2.6667   11.8606 N   0  0  0  0  0  0
   -9.8566    1.6454   12.4612 C   0  0  0  0  0  0
   -8.6577    3.8316   12.6392 C   0  0  0  0  0  0
   -7.3730    3.6110   13.4127 C   0  0  0  0  0  0
   -7.0029    4.7637   14.1884 N   0  3  0  0  0  0
   -6.3474    5.7829   13.3541 C   0  0  0  0  0  0
   -6.1152    4.3969   15.3029 C   0  0  0  0  0  0
   -5.6781    1.0964    8.8026 O   0  0  0  0  0  0
   -4.5083    1.9117    8.7953 C   0  0  0  0  0  0
  -11.2978    7.8541    2.0711 H   0  0  0  0  0  0
  -10.8358    9.3150    3.0085 H   0  0  0  0  0  0
  -12.2454    8.3270    3.5220 H   0  0  0  0  0  0
   -9.8536    5.9989    2.4662 H   0  0  0  0  0  0
   -8.0590    5.9728    7.3411 H   0  0  0  0  0  0
   -8.7828    7.7922    8.8564 H   0  0  0  0  0  0
  -10.3114    9.5603    8.0644 H   0  0  0  0  0  0
  -11.1571    9.5522    5.7266 H   0  0  0  0  0  0
   -6.4097    2.7934    2.3281 H   0  0  0  0  0  0
   -7.7593    4.8995    2.3179 H   0  0  0  0  0  0
   -6.5444    1.1432    6.5753 H   0  0  0  0  0  0
   -6.7620    1.4983   11.1409 H   0  0  0  0  0  0
   -9.4089    3.2354    7.3157 H   0  0  0  0  0  0
  -10.9166    3.7880   10.6819 H   0  0  0  0  0  0
  -12.7106    4.7827   10.4154 H   0  0  0  0  0  0
  -14.4274    5.8229    9.0340 H   0  0  0  0  0  0
  -13.4246    5.4009    7.4700 H   0  0  0  0  0  0
  -10.1108    1.9382   13.4906 H   0  0  0  0  0  0
   -9.3118    0.6899   12.4757 H   0  0  0  0  0  0
  -10.7796    1.5324   11.8735 H   0  0  0  0  0  0
   -8.5131    4.6908   11.9677 H   0  0  0  0  0  0
   -9.4587    4.0589   13.3581 H   0  0  0  0  0  0
   -7.5004    2.7621   14.1006 H   0  0  0  0  0  0
   -6.5547    3.3941   12.7103 H   0  0  0  0  0  0
   -6.0781    6.6487   13.9769 H   0  0  0  0  0  0
   -7.0359    6.1035   12.5583 H   0  0  0  0  0  0
   -5.4382    5.3584   12.9033 H   0  0  0  0  0  0
   -5.8520    5.2993   15.8742 H   0  0  0  0  0  0
   -5.1997    3.9345   14.9055 H   0  0  0  0  0  0
   -6.6303    3.6827   15.9622 H   0  0  0  0  0  0
   -3.6231    1.2814    8.6245 H   0  0  0  0  0  0
   -4.4123    2.4239    9.7640 H   0  0  0  0  0  0
   -4.5871    2.6588    7.9917 H   0  0  0  0  0  0
   -7.9460    5.1659   14.5868 H   0  0  0  0  0  0
  1  2  1  0  0  0
  1 38  1  0  0  0
  1 39  1  0  0  0
  1 40  1  0  0  0
  2 10  1  0  0  0
  2  3  1  0  0  0
  3  4  2  0  0  0
  3 41  1  0  0  0
  4  5  1  0  0  0
  4 11  1  0  0  0
  5 10  2  0  0  0
  5  6  1  0  0  0
  6  7  2  0  0  0
  6 42  1  0  0  0
  7  8  1  0  0  0
  7 43  1  0  0  0
  8  9  2  0  0  0
  8 44  1  0  0  0
  9 10  1  0  0  0
  9 45  1  0  0  0
 11 16  2  0  0  0
 11 12  1  0  0  0
 12 13  2  0  0  0
 13 14  1  0  0  0
 13 17  1  0  0  0
 14 15  2  0  0  0
 15 16  1  0  0  0
 15 46  1  0  0  0
 16 47  1  0  0  0
 17 18  1  0  0  0
 17 48  1  0  0  0
 18 23  2  0  0  0
 18 19  1  0  0  0
 19 20  2  0  0  0
 19 36  1  0  0  0
 20 21  1  0  0  0
 20 49  1  0  0  0
 21 22  2  0  0  0
 21 29  1  0  0  0
 22 23  1  0  0  0
 22 24  1  0  0  0
 23 50  1  0  0  0
 24 25  1  0  0  0
 24 51  1  0  0  0
 25 26  2  0  0  0
 25 27  1  0  0  0
 27 28  2  0  0  0
 27 52  1  0  0  0
 28 53  1  0  0  0
 28 54  1  0  0  0
 29 30  1  0  0  0
 29 31  1  0  0  0
 30 55  1  0  0  0
 30 56  1  0  0  0
 30 57  1  0  0  0
 31 32  1  0  0  0
 31 58  1  0  0  0
 31 59  1  0  0  0
 32 33  1  0  0  0
 32 60  1  0  0  0
 32 61  1  0  0  0
 33 34  1  0  0  0
 33 35  1  0  0  0
 33 71  1  0  0  0
 34 62  1  0  0  0
 34 63  1  0  0  0
 34 64  1  0  0  0
 35 65  1  0  0  0
 35 66  1  0  0  0
 35 67  1  0  0  0
 36 37  1  0  0  0
 37 68  1  0  0  0
 37 69  1  0  0  0
 37 70  1  0  0  0
M  CHG  1  33   1
M  END
> <s_m_source_file>
/Users/andrea/Development/mcce-charges/epik_inhibitors/output/Osimertinib/Osimertinib-input.mol2

> <i_m_source_file_index>
1

> <r_epik_Ionization_Penalty>
  0.0101

> <r_epik_Ionization_Penalty_Charging>
  0.0095

> <r_epik_Ionization_Penalty_Neutral>
  0.0005

> <r_epik_State_Penalty>
  0.0167

> <i_epik_Tot_Q>
1

$$$$
~{N}-[2-[2-(dimethylamino)ethyl-methyl-amino]-4-methoxy-5-[[4-(1-methylindol-3-yl)pyrimidin-2-yl]amino]phenyl]prop-2-enamide
                    3D
 Structure written by MMmdl.
 70 73  0  0  1  0            999 V2000
  -11.2397    8.2942    3.0775 C   0  0  0  0  0  0
  -10.3716    7.4871    3.9075 N   0  0  0  0  0  0
   -9.7322    6.3538    3.4818 C   0  0  0  0  0  0
   -9.0005    5.8589    4.5366 C   0  0  0  0  0  0
   -9.2027    6.7245    5.6479 C   0  0  0  0  0  0
   -8.7321    6.7433    6.9759 C   0  0  0  0  0  0
   -9.1424    7.7725    7.8310 C   0  0  0  0  0  0
  -10.0056    8.7705    7.3830 C   0  0  0  0  0  0
  -10.4853    8.7726    6.0700 C   0  0  0  0  0  0
  -10.0667    7.7375    5.2264 C   0  0  0  0  0  0
   -8.2053    4.6694    4.4284 C   0  0  0  0  0  0
   -8.0637    3.9524    5.5626 N   0  0  0  0  0  0
   -7.3151    2.8396    5.4416 C   0  0  0  0  0  0
   -6.7109    2.3878    4.3261 N   0  0  0  0  0  0
   -6.8941    3.1527    3.2299 C   0  0  0  0  0  0
   -7.6382    4.3147    3.2214 C   0  0  0  0  0  0
   -7.1454    2.0639    6.6092 N   0  0  0  0  0  0
   -7.6128    2.2136    7.9282 C   0  0  0  0  0  0
   -6.8701    1.7262    9.0036 C   0  0  0  0  0  0
   -7.3450    1.8804   10.3061 C   0  0  0  0  0  0
   -8.5626    2.5218   10.5331 C   0  0  0  0  0  0
   -9.3054    3.0091    9.4577 C   0  0  0  0  0  0
   -8.8304    2.8550    8.1552 C   0  0  0  0  0  0
  -10.5273    3.6565    9.6615 N   0  0  0  0  0  0
  -11.3860    4.1981    8.6974 C   0  0  0  0  0  0
  -11.2253    4.2064    7.4827 O   0  0  0  0  0  0
  -12.5967    4.8065    9.3216 C   0  0  0  0  0  0
  -13.5385    5.3771    8.5638 C   0  0  0  0  0  0
   -9.0240    2.6667   11.8606 N   0  0  0  0  0  0
   -9.8566    1.6454   12.4612 C   0  0  0  0  0  0
   -8.6577    3.8316   12.6392 C   0  0  0  0  0  0
   -7.3730    3.6110   13.4127 C   0  0  0  0  0  0
   -7.0029    4.7637   14.1884 N   0  0  0  0  0  0
   -6.3474    5.7829   13.3541 C   0  0  0  0  0  0
   -6.1152    4.3969   15.3029 C   0  0  0  0  0  0
   -5.6781    1.0964    8.8026 O   0  0  0  0  0  0
   -4.5083    1.9117    8.7953 C   0  0  0  0  0  0
  -11.2978    7.8541    2.0711 H   0  0  0  0  0  0
  -10.8358    9.3150    3.0085 H   0  0  0  0  0  0
  -12.2454    8.3270    3.5220 H   0  0  0  0  0  0
   -9.8536    5.9989    2.4662 H   0  0  0  0  0  0
   -8.0590    5.9728    7.3411 H   0  0  0  0  0  0
   -8.7828    7.7922    8.8564 H   0  0  0  0  0  0
  -10.3114    9.5603    8.0644 H   0  0  0  0  0  0
  -11.1571    9.5522    5.7266 H   0  0  0  0  0  0
   -6.4097    2.7934    2.3281 H   0  0  0  0  0  0
   -7.7593    4.8995    2.3179 H   0  0  0  0  0  0
   -6.5444    1.1432    6.5753 H   0  0  0  0  0  0
   -6.7620    1.4983   11.1409 H   0  0  0  0  0  0
   -9.4089    3.2354    7.3157 H   0  0  0  0  0  0
  -10.9166    3.7880   10.6819 H   0  0  0  0  0  0
  -12.7106    4.7827   10.4154 H   0  0  0  0  0  0
  -14.4274    5.8229    9.0340 H   0  0  0  0  0  0
  -13.4246    5.4009    7.4700 H   0  0  0  0  0  0
  -10.1108    1.9382   13.4906 H   0  0  0  0  0  0
   -9.3118    0.6899   12.4757 H   0  0  0  0  0  0
  -10.7796    1.5324   11.8735 H   0  0  0  0  0  0
   -8.5131    4.6908   11.9677 H   0  0  0  0  0  0
   -9.4587    4.0589   13.3581 H   0  0  0  0  0  0
   -7.5004    2.7621   14.1006 H   0  0  0  0  0  0
   -6.5547    3.3941   12.7103 H   0  0  0  0  0  0
   -6.0781    6.6487   13.9769 H   0  0  0  0  0  0
   -7.0359    6.1035   12.5583 H   0  0  0  0  0  0
   -5.4382    5.3584   12.9033 H   0  0  0  0  0  0
   -5.8520    5.2993   15.8742 H   0  0  0  0  0  0
   -5.1997    3.9345   14.9055 H   0  0  0  0  0  0
   -6.6303    3.6827   15.9622 H   0  0  0  0  0  0
   -3.6231    1.2814    8.6245 H   0  0  0  0  0  0
   -4.4123    2.4239    9.7640 H   0  0  0  0  0  0
   -4.5871    2.6588    7.9917 H   0  0  0  0  0  0
  1  2  1  0  0  0
  1 38  1  0  0  0
  1 39  1  0  0  0
  1 40  1  0  0  0
  2 10  1  0  0  0
  2  3  1  0  0  0
  3  4  2  0  0  0
  3 41  1  0  0  0
  4  5  1  0  0  0
  4 11  1  0  0  0
  5 10  2  0  0  0
  5  6  1  0  0  0
  6  7  2  0  0  0
  6 42  1  0  0  0
  7  8  1  0  0  0
  7 43  1  0  0  0
  8  9  2  0  0  0
  8 44  1  0  0  0
  9 10  1  0  0  0
  9 45  1  0  0  0
 11 16  2  0  0  0
 11 12  1  0  0  0
 12 13  2  0  0  0
 13 14  1  0  0  0
 13 17  1  0  0  0
 14 15  2  0  0  0
 15 16  1  0  0  0
 15 46  1  0  0  0
 16 47  1  0  0  0
 17 18  1  0  0  0
 17 48  1  0  0  0
 18 23  2  0  0  0
 18 19  1  0  0  0
 19 20  2  0  0  0
 19 36  1  0  0  0
 20 21  1  0  0  0
 20 49  1  0  0  0
 21 22  2  0  0  0
 21 29  1  0  0  0
 22 23  1  0  0  0
 22 24  1  0  0  0
 23 50  1  0  0  0
 24 25  1  0  0  0
 24 51  1  0  0  0
 25 26  2  0  0  0
 25 27  1  0  0  0
 27 28  2  0  0  0
 27 52  1  0  0  0
 28 53  1  0  0  0
 28 54  1  0  0  0
 29 30  1  0  0  0
 29 31  1  0  0  0
 30 55  1  0  0  0
 30 56  1  0  0  0
 30 57  1  0  0  0
 31 32  1  0  0  0
 31 58  1  0  0  0
 31 59  1  0  0  0
 32 33  1  0  0  0
 32 60  1  0  0  0
 32 61  1  0  0  0
 33 34  1  0  0  0
 33 35  1  0  0  0
 34 62  1  0  0  0
 34 63  1  0  0  0
 34 64  1  0  0  0
 35 65  1  0  0  0
 35 66  1  0  0  0
 35 67  1  0  0  0
 36 37  1  0  0  0
 37 68  1  0  0  0
 37 69  1  0  0  0
 37 70  1  0  0  0
M  END
> <s_m_source_file>
/Users/andrea/Development/mcce-charges/epik_inhibitors/output/Osimertinib/Osimertinib-input.mol2

> <i_m_source_file_index>
1

> <r_epik_Ionization_Penalty>
  2.4966

> <r_epik_Ionization_Penalty_Charging>
  0.0000

> <r_epik_Ionization_Penalty_Neutral>
  2.4966

> <r_epik_State_Penalty>
  2.2729

> <i_epik_Tot_Q>
0

$$$$
~{N}-[2-[2-(dimethylamino)ethyl-methyl-amino]-4-methoxy-5-[[4-(1-methylindol-3-yl)pyrimidin-2-yl]amino]phenyl]prop-2-enamide
                    3D
 Structure written by MMmdl.
 71 74  0  0  1  0            999 V2000
  -11.2397    8.2942    3.0775 C   0  0  0  0  0  0
  -10.3716    7.4871    3.9075 N   0  0  0  0  0  0
   -9.7322    6.3538    3.4818 C   0  0  0  0  0  0
   -9.0005    5.8589    4.5366 C   0  0  0  0  0  0
   -9.2027    6.7245    5.6479 C   0  0  0  0  0  0
   -8.7321    6.7433    6.9759 C   0  0  0  0  0  0
   -9.1424    7.7725    7.8310 C   0  0  0  0  0  0
  -10.0056    8.7705    7.3830 C   0  0  0  0  0  0
  -10.4853    8.7726    6.0700 C   0  0  0  0  0  0
  -10.0667    7.7375    5.2264 C   0  0  0  0  0  0
   -8.2053    4.6694    4.4284 C   0  0  0  0  0  0
   -8.0637    3.9524    5.5626 N   0  0  0  0  0  0
   -7.3151    2.8396    5.4416 C   0  0  0  0  0  0
   -6.7109    2.3878    4.3261 N   0  0  0  0  0  0
   -6.8941    3.1527    3.2299 C   0  0  0  0  0  0
   -7.6382    4.3147    3.2214 C   0  0  0  0  0  0
   -7.1454    2.0639    6.6092 N   0  0  0  0  0  0
   -7.6128    2.2136    7.9282 C   0  0  0  0  0  0
   -6.8701    1.7262    9.0036 C   0  0  0  0  0  0
   -7.3450    1.8804   10.3061 C   0  0  0  0  0  0
   -8.5626    2.5218   10.5331 C   0  0  0  0  0  0
   -9.3054    3.0091    9.4577 C   0  0  0  0  0  0
   -8.8304    2.8550    8.1552 C   0  0  0  0  0  0
  -10.5273    3.6565    9.6615 N   0  0  0  0  0  0
  -11.3860    4.1981    8.6974 C   0  0  0  0  0  0
  -11.2253    4.2064    7.4827 O   0  0  0  0  0  0
  -12.5967    4.8065    9.3216 C   0  0  0  0  0  0
  -13.5385    5.3771    8.5638 C   0  0  0  0  0  0
   -9.0240    2.6667   11.8606 N   0  3  1  0  0  0
   -9.8566    1.6454   12.4612 C   0  0  0  0  0  0
   -8.6577    3.8316   12.6392 C   0  0  0  0  0  0
   -7.3730    3.6110   13.4127 C   0  0  0  0  0  0
   -7.0029    4.7637   14.1884 N   0  0  0  0  0  0
   -6.3474    5.7829   13.3541 C   0  0  0  0  0  0
   -6.1152    4.3969   15.3029 C   0  0  0  0  0  0
   -5.6781    1.0964    8.8026 O   0  0  0  0  0  0
   -4.5083    1.9117    8.7953 C   0  0  0  0  0  0
  -11.2978    7.8541    2.0711 H   0  0  0  0  0  0
  -10.8358    9.3150    3.0085 H   0  0  0  0  0  0
  -12.2454    8.3270    3.5220 H   0  0  0  0  0  0
   -9.8536    5.9989    2.4662 H   0  0  0  0  0  0
   -8.0590    5.9728    7.3411 H   0  0  0  0  0  0
   -8.7828    7.7922    8.8564 H   0  0  0  0  0  0
  -10.3114    9.5603    8.0644 H   0  0  0  0  0  0
  -11.1571    9.5522    5.7266 H   0  0  0  0  0  0
   -6.4097    2.7934    2.3281 H   0  0  0  0  0  0
   -7.7593    4.8995    2.3179 H   0  0  0  0  0  0
   -6.5444    1.1432    6.5753 H   0  0  0  0  0  0
   -6.7620    1.4983   11.1409 H   0  0  0  0  0  0
   -9.4089    3.2354    7.3157 H   0  0  0  0  0  0
  -10.9166    3.7880   10.6819 H   0  0  0  0  0  0
  -12.7106    4.7827   10.4154 H   0  0  0  0  0  0
  -14.4274    5.8229    9.0340 H   0  0  0  0  0  0
  -13.4246    5.4009    7.4700 H   0  0  0  0  0  0
  -10.1108    1.9382   13.4906 H   0  0  0  0  0  0
   -9.3118    0.6899   12.4757 H   0  0  0  0  0  0
  -10.7796    1.5324   11.8735 H   0  0  0  0  0  0
   -8.5131    4.6908   11.9677 H   0  0  0  0  0  0
   -9.4587    4.0589   13.3581 H   0  0  0  0  0  0
   -7.5004    2.7621   14.1006 H   0  0  0  0  0  0
   -6.5547    3.3941   12.7103 H   0  0  0  0  0  0
   -6.0781    6.6487   13.9769 H   0  0  0  0  0  0
   -7.0359    6.1035   12.5583 H   0  0  0  0  0  0
   -5.4382    5.3584   12.9033 H   0  0  0  0  0  0
   -5.8520    5.2993   15.8742 H   0  0  0  0  0  0
   -5.1997    3.9345   14.9055 H   0  0  0  0  0  0
   -6.6303    3.6827   15.9622 H   0  0  0  0  0  0
   -3.6231    1.2814    8.6245 H   0  0  0  0  0  0
   -4.4123    2.4239    9.7640 H   0  0  0  0  0  0
   -4.5871    2.6588    7.9917 H   0  0  0  0  0  0
   -9.9228    3.1826   11.4919 H   0  0  0  0  0  0
  1  2  1  0  0  0
  1 38  1  0  0  0
  1 39  1  0  0  0
  1 40  1  0  0  0
  2 10  1  0  0  0
  2  3  1  0  0  0
  3  4  2  0  0  0
  3 41  1  0  0  0
  4  5  1  0  0  0
  4 11  1  0  0  0
  5 10  2  0  0  0
  5  6  1  0  0  0
  6  7  2  0  0  0
  6 42  1  0  0  0
  7  8  1  0  0  0
  7 43  1  0  0  0
  8  9  2  0  0  0
  8 44  1  0  0  0
  9 10  1  0  0  0
  9 45  1  0  0  0
 11 16  2  0  0  0
 11 12  1  0  0  0
 12 13  2  0  0  0
 13 14  1  0  0  0
 13 17  1  0  0  0
 14 15  2  0  0  0
 15 16  1  0  0  0
 15 46  1  0  0  0
 16 47  1  0  0  0
 17 18  1  0  0  0
 17 48  1  0  0  0
 18 23  2  0  0  0
 18 19  1  0  0  0
 19 20  2  0  0  0
 19 36  1  0  0  0
 20 21  1  0  0  0
 20 49  1  0  0  0
 21 22  2  0  0  0
 21 29  1  0  0  0
 22 23  1  0  0  0
 22 24  1  0  0  0
 23 50  1  0  0  0
 24 25  1  0  0  0
 24 51  1  0  0  0
 25 26  2  0  0  0
 25 27  1  0  0  0
 27 28  2  0  0  0
 27 52  1  0  0  0
 28 53  1  0  0  0
 28 54  1  0  0  0
 29 30  1  0  0  0
 29 31  1  0  0  0
 29 71  1  0  0  0
 30 55  1  0  0  0
 30 56  1  0  0  0
 30 57  1  0  0  0
 31 32  1  0  0  0
 31 58  1  0  0  0
 31 59  1  0  0  0
 32 33  1  0  0  0
 32 60  1  0  0  0
 32 61  1  0  0  0
 33 34  1  0  0  0
 33 35  1  0  0  0
 34 62  1  0  0  0
 34 63  1  0  0  0
 34 64  1  0  0  0
 35 65  1  0  0  0
 35 66  1  0  0  0
 35 67  1  0  0  0
 36 37  1  0  0  0
 37 68  1  0  0  0
 37 69  1  0  0  0
 37 70  1  0  0  0
M  CHG  1  29   1
M  END
> <s_m_source_file>
/Users/andrea/Development/mcce-charges/epik_inhibitors/output/Osimertinib/Osimertinib-input.mol2

> <i_m_source_file_index>
1

> <r_epik_Ionization_Penalty>
  1.5583

> <r_epik_Ionization_Penalty_Charging>
  1.5456

> <r_epik_Ionization_Penalty_Neutral>
  0.0127

> <r_epik_State_Penalty>
  3.5250

> <i_epik_Tot_Q>
1

$$$$
~{N}-[2-[2-(dimethylamino)ethyl-methyl-amino]-4-methoxy-5-[[4-(1-methylindol-3-yl)pyrimidin-2-yl]amino]phenyl]prop-2-enamide
                    3D
 Structure written by MMmdl.
 71 74  0  0  1  0            999 V2000
  -11.2485    8.2871    3.0758 C   0  0  0  0  0  0
  -10.3788    7.4818    3.9058 N   0  0  0  0  0  0
   -9.7382    6.3490    3.4806 C   0  0  0  0  0  0
   -9.0051    5.8559    4.5353 C   0  0  0  0  0  0
   -9.2076    6.7222    5.6460 C   0  0  0  0  0  0
   -8.7361    6.7427    6.9737 C   0  0  0  0  0  0
   -9.1471    7.7721    7.8282 C   0  0  0  0  0  0
  -10.0119    8.7686    7.3800 C   0  0  0  0  0  0
  -10.4926    8.7690    6.0673 C   0  0  0  0  0  0
  -10.0732    7.7337    5.2243 C   0  0  0  0  0  0
   -8.2084    4.6674    4.4275 C   0  0  0  0  0  0
   -8.0653    3.9514    5.5622 N   0  0  0  0  0  0
   -7.3151    2.8396    5.4416 C   0  0  0  0  0  0
   -6.7095    2.3887    4.3265 N   0  0  0  0  0  0
   -6.8928    3.1535    3.2303 C   0  0  0  0  0  0
   -7.6410    4.3129    3.2206 C   0  0  0  0  0  0
   -7.1454    2.0639    6.6092 N   0  0  0  0  0  0
   -7.6128    2.2136    7.9282 C   0  0  0  0  0  0
   -6.8701    1.7262    9.0036 C   0  0  0  0  0  0
   -7.3450    1.8804   10.3061 C   0  0  0  0  0  0
   -8.5626    2.5218   10.5331 C   0  0  0  0  0  0
   -9.3054    3.0091    9.4577 C   0  0  0  0  0  0
   -8.8304    2.8550    8.1552 C   0  0  0  0  0  0
  -10.5273    3.6565    9.6615 N   0  0  0  0  0  0
  -11.3860    4.1981    8.6974 C   0  0  0  0  0  0
  -11.2253    4.2064    7.4827 O   0  0  0  0  0  0
  -12.5967    4.8065    9.3216 C   0  0  0  0  0  0
  -13.5385    5.3771    8.5638 C   0  0  0  0  0  0
   -9.0240    2.6667   11.8606 N   0  0  0  0  0  0
   -9.8566    1.6454   12.4612 C   0  0  0  0  0  0
   -8.6577    3.8316   12.6392 C   0  0  0  0  0  0
   -7.3730    3.6110   13.4127 C   0  0  0  0  0  0
   -7.0029    4.7637   14.1884 N   0  3  0  0  0  0
   -6.3474    5.7829   13.3541 C   0  0  0  0  0  0
   -6.1152    4.3969   15.3029 C   0  0  0  0  0  0
   -5.6781    1.0964    8.8026 O   0  0  0  0  0  0
   -4.5083    1.9117    8.7953 C   0  0  0  0  0  0
  -11.3068    7.8461    2.0698 H   0  0  0  0  0  0
  -10.8460    9.3084    3.0057 H   0  0  0  0  0  0
  -12.2539    8.3190    3.5210 H   0  0  0  0  0  0
   -9.7279    5.8755    2.5999 H   0  0  0  0  0  0
   -8.1153    6.0334    7.3077 H   0  0  0  0  0  0
   -8.8199    7.7984    8.7728 H   0  0  0  0  0  0
  -10.2881    9.4911    8.0138 H   0  0  0  0  0  0
  -11.1125    9.4918    5.7621 H   0  0  0  0  0  0
   -6.4493    2.8377    2.3915 H   0  0  0  0  0  0
   -7.7425    4.8355    2.3741 H   0  0  0  0  0  0
   -6.7620    1.4983   11.1409 H   0  0  0  0  0  0
   -9.4089    3.2354    7.3157 H   0  0  0  0  0  0
  -12.7106    4.7827   10.4154 H   0  0  0  0  0  0
  -14.4274    5.8229    9.0340 H   0  0  0  0  0  0
  -13.4246    5.4009    7.4700 H   0  0  0  0  0  0
  -10.1108    1.9382   13.4906 H   0  0  0  0  0  0
   -9.3118    0.6899   12.4757 H   0  0  0  0  0  0
  -10.7796    1.5324   11.8735 H   0  0  0  0  0  0
   -8.5131    4.6908   11.9677 H   0  0  0  0  0  0
   -9.4587    4.0589   13.3581 H   0  0  0  0  0  0
   -7.5004    2.7621   14.1006 H   0  0  0  0  0  0
   -6.5547    3.3941   12.7103 H   0  0  0  0  0  0
   -6.0781    6.6487   13.9769 H   0  0  0  0  0  0
   -7.0359    6.1035   12.5583 H   0  0  0  0  0  0
   -5.4382    5.3584   12.9033 H   0  0  0  0  0  0
   -5.8520    5.2993   15.8742 H   0  0  0  0  0  0
   -5.1997    3.9345   14.9055 H   0  0  0  0  0  0
   -6.6303    3.6827   15.9622 H   0  0  0  0  0  0
   -3.6231    1.2814    8.6245 H   0  0  0  0  0  0
   -4.4123    2.4239    9.7640 H   0  0  0  0  0  0
   -4.5871    2.6588    7.9917 H   0  0  0  0  0  0
   -7.9460    5.1659   14.5868 H   0  0  0  0  0  0
  -11.9817    4.6680    6.8310 H   0  0  0  0  0  0
   -6.5444    1.1432    6.5753 H   0  0  0  0  0  0
  1  2  1  0  0  0
  1 38  1  0  0  0
  1 39  1  0  0  0
  1 40  1  0  0  0
  2 10  1  0  0  0
  2  3  1  0  0  0
  3  4  2  0  0  0
  3 41  1  0  0  0
  4  5  1  0  0  0
  4 11  1  0  0  0
  5 10  2  0  0  0
  5  6  1  0  0  0
  6  7  2  0  0  0
  6 42  1  0  0  0
  7  8  1  0  0  0
  7 43  1  0  0  0
  8  9  2  0  0  0
  8 44  1  0  0  0
  9 10  1  0  0  0
  9 45  1  0  0  0
 11 16  2  0  0  0
 11 12  1  0  0  0
 12 13  2  0  0  0
 13 17  1  0  0  0
 13 14  1  0  0  0
 14 15  2  0  0  0
 15 46  1  0  0  0
 15 16  1  0  0  0
 16 47  1  0  0  0
 17 18  1  0  0  0
 17 71  1  0  0  0
 18 23  2  0  0  0
 18 19  1  0  0  0
 19 20  2  0  0  0
 19 36  1  0  0  0
 20 21  1  0  0  0
 20 48  1  0  0  0
 21 22  2  0  0  0
 21 29  1  0  0  0
 22 23  1  0  0  0
 22 24  1  0  0  0
 23 49  1  0  0  0
 24 25  2  0  0  0
 25 26  1  0  0  0
 25 27  1  0  0  0
 26 70  1  0  0  0
 27 28  2  0  0  0
 27 50  1  0  0  0
 28 51  1  0  0  0
 28 52  1  0  0  0
 29 30  1  0  0  0
 29 31  1  0  0  0
 30 53  1  0  0  0
 30 54  1  0  0  0
 30 55  1  0  0  0
 31 32  1  0  0  0
 31 56  1  0  0  0
 31 57  1  0  0  0
 32 33  1  0  0  0
 32 58  1  0  0  0
 32 59  1  0  0  0
 33 34  1  0  0  0
 33 35  1  0  0  0
 33 69  1  0  0  0
 34 60  1  0  0  0
 34 61  1  0  0  0
 34 62  1  0  0  0
 35 63  1  0  0  0
 35 64  1  0  0  0
 35 65  1  0  0  0
 36 37  1  0  0  0
 37 66  1  0  0  0
 37 67  1  0  0  0
 37 68  1  0  0  0
M  CHG  1  33   1
M  END
> <s_m_source_file>
/Users/andrea/Development/mcce-charges/epik_inhibitors/output/Osimertinib/Osimertinib-input.mol2

> <i_m_source_file_index>
1

> <r_lp_tautomer_probability>
0.999999812000036

> <r_epik_Ionization_Penalty>
  5.0863

> <r_epik_Ionization_Penalty_Charging>
  0.0095

> <r_epik_Ionization_Penalty_Neutral>
  5.0768

> <r_epik_State_Penalty>
  3.9400

> <i_epik_Tot_Q>
1

> <s_epik_Chemistry_Notes>
This compound has an imine and may undergo hydrolysis.

$$$$
~{N}-[2-[2-(dimethylamino)ethyl-methyl-amino]-4-methoxy-5-[[4-(1-methylindol-3-yl)pyrimidin-2-yl]amino]phenyl]prop-2-enamide
                    3D
 Structure written by MMmdl.
 71 74  0  0  1  0            999 V2000
  -11.2397    8.2942    3.0775 C   0  0  0  0  0  0
  -10.3716    7.4871    3.9075 N   0  0  0  0  0  0
   -9.7322    6.3538    3.4818 C   0  0  0  0  0  0
   -9.0005    5.8589    4.5366 C   0  0  0  0  0  0
   -9.2027    6.7245    5.6479 C   0  0  0  0  0  0
   -8.7321    6.7433    6.9759 C   0  0  0  0  0  0
   -9.1424    7.7725    7.8310 C   0  0  0  0  0  0
  -10.0056    8.7705    7.3830 C   0  0  0  0  0  0
  -10.4853    8.7726    6.0700 C   0  0  0  0  0  0
  -10.0667    7.7375    5.2264 C   0  0  0  0  0  0
   -8.2053    4.6694    4.4284 C   0  0  0  0  0  0
   -8.0637    3.9524    5.5626 N   0  0  0  0  0  0
   -7.3151    2.8396    5.4416 C   0  0  0  0  0  0
   -6.7109    2.3878    4.3261 N   0  0  0  0  0  0
   -6.8941    3.1527    3.2299 C   0  0  0  0  0  0
   -7.6382    4.3147    3.2214 C   0  0  0  0  0  0
   -7.1454    2.0639    6.6092 N   0  0  0  0  0  0
   -7.6128    2.2136    7.9282 C   0  0  0  0  0  0
   -6.8701    1.7262    9.0036 C   0  0  0  0  0  0
   -7.3450    1.8804   10.3061 C   0  0  0  0  0  0
   -8.5626    2.5218   10.5331 C   0  0  0  0  0  0
   -9.3054    3.0091    9.4577 C   0  0  0  0  0  0
   -8.8304    2.8550    8.1552 C   0  0  0  0  0  0
  -10.5273    3.6565    9.6615 N   0  5  0  0  0  0
  -11.3860    4.1981    8.6974 C   0  0  0  0  0  0
  -11.2253    4.2064    7.4827 O   0  3  0  0  0  0
  -12.5967    4.8065    9.3216 C   0  0  0  0  0  0
  -13.5385    5.3771    8.5638 C   0  0  0  0  0  0
   -9.0240    2.6667   11.8606 N   0  0  0  0  0  0
   -9.8566    1.6454   12.4612 C   0  0  0  0  0  0
   -8.6577    3.8316   12.6392 C   0  0  0  0  0  0
   -7.3730    3.6110   13.4127 C   0  0  0  0  0  0
   -7.0029    4.7637   14.1884 N   0  3  0  0  0  0
   -6.3474    5.7829   13.3541 C   0  0  0  0  0  0
   -6.1152    4.3969   15.3029 C   0  0  0  0  0  0
   -5.6781    1.0964    8.8026 O   0  0  0  0  0  0
   -4.5083    1.9117    8.7953 C   0  0  0  0  0  0
  -11.2978    7.8541    2.0711 H   0  0  0  0  0  0
  -10.8358    9.3150    3.0085 H   0  0  0  0  0  0
  -12.2454    8.3270    3.5220 H   0  0  0  0  0  0
   -9.8536    5.9989    2.4662 H   0  0  0  0  0  0
   -8.0590    5.9728    7.3411 H   0  0  0  0  0  0
   -8.7828    7.7922    8.8564 H   0  0  0  0  0  0
  -10.3114    9.5603    8.0644 H   0  0  0  0  0  0
  -11.1571    9.5522    5.7266 H   0  0  0  0  0  0
   -6.4097    2.7934    2.3281 H   0  0  0  0  0  0
   -7.7593    4.8995    2.3179 H   0  0  0  0  0  0
   -6.5444    1.1432    6.5753 H   0  0  0  0  0  0
   -6.7620    1.4983   11.1409 H   0  0  0  0  0  0
   -9.4089    3.2354    7.3157 H   0  0  0  0  0  0
  -12.7106    4.7827   10.4154 H   0  0  0  0  0  0
  -14.4274    5.8229    9.0340 H   0  0  0  0  0  0
  -13.4246    5.4009    7.4700 H   0  0  0  0  0  0
  -10.1108    1.9382   13.4906 H   0  0  0  0  0  0
   -9.3118    0.6899   12.4757 H   0  0  0  0  0  0
  -10.7796    1.5324   11.8735 H   0  0  0  0  0  0
   -8.5131    4.6908   11.9677 H   0  0  0  0  0  0
   -9.4587    4.0589   13.3581 H   0  0  0  0  0  0
   -7.5004    2.7621   14.1006 H   0  0  0  0  0  0
   -6.5547    3.3941   12.7103 H   0  0  0  0  0  0
   -6.0781    6.6487   13.9769 H   0  0  0  0  0  0
   -7.0359    6.1035   12.5583 H   0  0  0  0  0  0
   -5.4382    5.3584   12.9033 H   0  0  0  0  0  0
   -5.8520    5.2993   15.8742 H   0  0  0  0  0  0
   -5.1997    3.9345   14.9055 H   0  0  0  0  0  0
   -6.6303    3.6827   15.9622 H   0  0  0  0  0  0
   -3.6231    1.2814    8.6245 H   0  0  0  0  0  0
   -4.4123    2.4239    9.7640 H   0  0  0  0  0  0
   -4.5871    2.6588    7.9917 H   0  0  0  0  0  0
   -7.9460    5.1659   14.5868 H   0  0  0  0  0  0
  -11.9817    4.6680    6.8310 H   0  0  0  0  0  0
  1  2  1  0  0  0
  1 38  1  0  0  0
  1 39  1  0  0  0
  1 40  1  0  0  0
  2 10  1  0  0  0
  2  3  1  0  0  0
  3  4  2  0  0  0
  3 41  1  0  0  0
  4  5  1  0  0  0
  4 11  1  0  0  0
  5 10  2  0  0  0
  5  6  1  0  0  0
  6  7  2  0  0  0
  6 42  1  0  0  0
  7  8  1  0  0  0
  7 43  1  0  0  0
  8  9  2  0  0  0
  8 44  1  0  0  0
  9 10  1  0  0  0
  9 45  1  0  0  0
 11 16  2  0  0  0
 11 12  1  0  0  0
 12 13  2  0  0  0
 13 14  1  0  0  0
 13 17  1  0  0  0
 14 15  2  0  0  0
 15 16  1  0  0  0
 15 46  1  0  0  0
 16 47  1  0  0  0
 17 18  1  0  0  0
 17 48  1  0  0  0
 18 23  2  0  0  0
 18 19  1  0  0  0
 19 20  2  0  0  0
 19 36  1  0  0  0
 20 21  1  0  0  0
 20 49  1  0  0  0
 21 22  2  0  0  0
 21 29  1  0  0  0
 22 23  1  0  0  0
 22 24  1  0  0  0
 23 50  1  0  0  0
 24 25  1  0  0  0
 25 26  2  0  0  0
 25 27  1  0  0  0
 26 71  1  0  0  0
 27 28  2  0  0  0
 27 51  1  0  0  0
 28 52  1  0  0  0
 28 53  1  0  0  0
 29 30  1  0  0  0
 29 31  1  0  0  0
 30 54  1  0  0  0
 30 55  1  0  0  0
 30 56  1  0  0  0
 31 32  1  0  0  0
 31 57  1  0  0  0
 31 58  1  0  0  0
 32 33  1  0  0  0
 32 59  1  0  0  0
 32 60  1  0  0  0
 33 34  1  0  0  0
 33 35  1  0  0  0
 33 70  1  0  0  0
 34 61  1  0  0  0
 34 62  1  0  0  0
 34 63  1  0  0  0
 35 64  1  0  0  0
 35 65  1  0  0  0
 35 66  1  0  0  0
 36 37  1  0  0  0
 37 67  1  0  0  0
 37 68  1  0  0  0
 37 69  1  0  0  0
M  CHG  3  24  -1  26   1  33   1
M  END
> <s_m_source_file>
/Users/andrea/Development/mcce-charges/epik_inhibitors/output/Osimertinib/Osimertinib-input.mol2

> <i_m_source_file_index>
1

> <r_lp_tautomer_probability>
0.999999812000036

> <r_epik_Ionization_Penalty>
  0.1053

> <r_epik_Ionization_Penalty_Charging>
  0.0279

> <r_epik_Ionization_Penalty_Neutral>
  0.0774

> <r_epik_State_Penalty>
  4.0258

> <i_epik_Tot_Q>
1

$$$$
~{N}-[2-[2-(dimethylamino)ethyl-methyl-amino]-4-methoxy-5-[[4-(1-methylindol-3-yl)pyrimidin-2-yl]amino]phenyl]prop-2-enamide
                    3D
 Structure written by MMmdl.
 70 73  0  0  1  0            999 V2000
  -11.2397    8.2942    3.0775 C   0  0  0  0  0  0
  -10.3716    7.4871    3.9075 N   0  0  0  0  0  0
   -9.7322    6.3538    3.4818 C   0  0  0  0  0  0
   -9.0005    5.8589    4.5366 C   0  0  0  0  0  0
   -9.2027    6.7245    5.6479 C   0  0  0  0  0  0
   -8.7321    6.7433    6.9759 C   0  0  0  0  0  0
   -9.1424    7.7725    7.8310 C   0  0  0  0  0  0
  -10.0056    8.7705    7.3830 C   0  0  0  0  0  0
  -10.4853    8.7726    6.0700 C   0  0  0  0  0  0
  -10.0667    7.7375    5.2264 C   0  0  0  0  0  0
   -8.2053    4.6694    4.4284 C   0  0  0  0  0  0
   -8.0637    3.9524    5.5626 N   0  0  0  0  0  0
   -7.3151    2.8396    5.4416 C   0  0  0  0  0  0
   -6.7109    2.3878    4.3261 N   0  0  0  0  0  0
   -6.8941    3.1527    3.2299 C   0  0  0  0  0  0
   -7.6382    4.3147    3.2214 C   0  0  0  0  0  0
   -7.1454    2.0639    6.6092 N   0  0  0  0  0  0
   -7.6128    2.2136    7.9282 C   0  0  0  0  0  0
   -6.8701    1.7262    9.0036 C   0  0  0  0  0  0
   -7.3450    1.8804   10.3061 C   0  0  0  0  0  0
   -8.5626    2.5218   10.5331 C   0  0  0  0  0  0
   -9.3054    3.0091    9.4577 C   0  0  0  0  0  0
   -8.8304    2.8550    8.1552 C   0  0  0  0  0  0
  -10.5273    3.6565    9.6615 N   0  0  0  0  0  0
  -11.3860    4.1981    8.6974 C   0  0  0  0  0  0
  -11.2253    4.2064    7.4827 O   0  5  0  0  0  0
  -12.5967    4.8065    9.3216 C   0  0  0  0  0  0
  -13.5385    5.3771    8.5638 C   0  0  0  0  0  0
   -9.0240    2.6667   11.8606 N   0  0  0  0  0  0
   -9.8566    1.6454   12.4612 C   0  0  0  0  0  0
   -8.6577    3.8316   12.6392 C   0  0  0  0  0  0
   -7.3730    3.6110   13.4127 C   0  0  0  0  0  0
   -7.0029    4.7637   14.1884 N   0  3  0  0  0  0
   -6.3474    5.7829   13.3541 C   0  0  0  0  0  0
   -6.1152    4.3969   15.3029 C   0  0  0  0  0  0
   -5.6781    1.0964    8.8026 O   0  0  0  0  0  0
   -4.5083    1.9117    8.7953 C   0  0  0  0  0  0
  -11.2978    7.8541    2.0711 H   0  0  0  0  0  0
  -10.8358    9.3150    3.0085 H   0  0  0  0  0  0
  -12.2454    8.3270    3.5220 H   0  0  0  0  0  0
   -9.7219    5.8810    2.6007 H   0  0  0  0  0  0
   -8.1125    6.0329    7.3098 H   0  0  0  0  0  0
   -8.8159    7.7976    8.7759 H   0  0  0  0  0  0
  -10.2813    9.4929    8.0172 H   0  0  0  0  0  0
  -11.1041    9.4965    5.7649 H   0  0  0  0  0  0
   -6.4788    2.8871    2.3598 H   0  0  0  0  0  0
   -7.7795    4.8886    2.4147 H   0  0  0  0  0  0
   -6.5444    1.1432    6.5753 H   0  0  0  0  0  0
   -6.7620    1.4983   11.1409 H   0  0  0  0  0  0
   -9.4089    3.2354    7.3157 H   0  0  0  0  0  0
  -12.7106    4.7827   10.4154 H   0  0  0  0  0  0
  -14.4274    5.8229    9.0340 H   0  0  0  0  0  0
  -13.4246    5.4009    7.4700 H   0  0  0  0  0  0
  -10.1108    1.9382   13.4906 H   0  0  0  0  0  0
   -9.3118    0.6899   12.4757 H   0  0  0  0  0  0
  -10.7796    1.5324   11.8735 H   0  0  0  0  0  0
   -8.5131    4.6908   11.9677 H   0  0  0  0  0  0
   -9.4587    4.0589   13.3581 H   0  0  0  0  0  0
   -7.5004    2.7621   14.1006 H   0  0  0  0  0  0
   -6.5547    3.3941   12.7103 H   0  0  0  0  0  0
   -6.0781    6.6487   13.9769 H   0  0  0  0  0  0
   -7.0359    6.1035   12.5583 H   0  0  0  0  0  0
   -5.4382    5.3584   12.9033 H   0  0  0  0  0  0
   -5.8520    5.2993   15.8742 H   0  0  0  0  0  0
   -5.1997    3.9345   14.9055 H   0  0  0  0  0  0
   -6.6303    3.6827   15.9622 H   0  0  0  0  0  0
   -3.6231    1.2814    8.6245 H   0  0  0  0  0  0
   -4.4123    2.4239    9.7640 H   0  0  0  0  0  0
   -4.5871    2.6588    7.9917 H   0  0  0  0  0  0
   -7.9460    5.1659   14.5868 H   0  0  0  0  0  0
  1  2  1  0  0  0
  1 38  1  0  0  0
  1 39  1  0  0  0
  1 40  1  0  0  0
  2 10  1  0  0  0
  2  3  1  0  0  0
  3  4  2  0  0  0
  3 41  1  0  0  0
  4  5  1  0  0  0
  4 11  1  0  0  0
  5 10  2  0  0  0
  5  6  1  0  0  0
  6  7  2  0  0  0
  6 42  1  0  0  0
  7  8  1  0  0  0
  7 43  1  0  0  0
  8  9  2  0  0  0
  8 44  1  0  0  0
  9 10  1  0  0  0
  9 45  1  0  0  0
 11 16  2  0  0  0
 11 12  1  0  0  0
 12 13  2  0  0  0
 13 14  1  0  0  0
 13 17  1  0  0  0
 14 15  2  0  0  0
 15 16  1  0  0  0
 15 46  1  0  0  0
 16 47  1  0  0  0
 17 18  1  0  0  0
 17 48  1  0  0  0
 18 23  2  0  0  0
 18 19  1  0  0  0
 19 20  2  0  0  0
 19 36  1  0  0  0
 20 21  1  0  0  0
 20 49  1  0  0  0
 21 22  2  0  0  0
 21 29  1  0  0  0
 22 23  1  0  0  0
 22 24  1  0  0  0
 23 50  1  0  0  0
 24 25  2  0  0  0
 25 26  1  0  0  0
 25 27  1  0  0  0
 27 28  2  0  0  0
 27 51  1  0  0  0
 28 52  1  0  0  0
 28 53  1  0  0  0
 29 30  1  0  0  0
 29 31  1  0  0  0
 30 54  1  0  0  0
 30 55  1  0  0  0
 30 56  1  0  0  0
 31 32  1  0  0  0
 31 57  1  0  0  0
 31 58  1  0  0  0
 32 33  1  0  0  0
 32 59  1  0  0  0
 32 60  1  0  0  0
 33 34  1  0  0  0
 33 35  1  0  0  0
 33 70  1  0  0  0
 34 61  1  0  0  0
 34 62  1  0  0  0
 34 63  1  0  0  0
 35 64  1  0  0  0
 35 65  1  0  0  0
 35 66  1  0  0  0
 36 37  1  0  0  0
 37 67  1  0  0  0
 37 68  1  0  0  0
 37 69  1  0  0  0
M  CHG  2  26  -1  33   1
M  END
> <s_m_source_file>
/Users/andrea/Development/mcce-charges/epik_inhibitors/output/Osimertinib/Osimertinib-input.mol2

> <i_m_source_file_index>
1

> <r_epik_Ionization_Penalty>
  6.4730

> <r_epik_Ionization_Penalty_Charging>
  6.4702

> <r_epik_Ionization_Penalty_Neutral>
  0.0027

> <r_epik_State_Penalty>
  4.1154

> <i_epik_Tot_Q>
0

$$$$
~{N}-[2-[2-(dimethylamino)ethyl-methyl-amino]-4-methoxy-5-[[4-(1-methylindol-3-yl)pyrimidin-2-yl]amino]phenyl]prop-2-enamide
                    3D
 Structure written by MMmdl.
 71 74  0  0  1  0            999 V2000
  -11.2397    8.2942    3.0775 C   0  0  0  0  0  0
  -10.3716    7.4871    3.9075 N   0  0  0  0  0  0
   -9.7322    6.3538    3.4818 C   0  0  0  0  0  0
   -9.0005    5.8589    4.5366 C   0  0  0  0  0  0
   -9.2027    6.7245    5.6479 C   0  0  0  0  0  0
   -8.7321    6.7433    6.9759 C   0  0  0  0  0  0
   -9.1424    7.7725    7.8310 C   0  0  0  0  0  0
  -10.0056    8.7705    7.3830 C   0  0  0  0  0  0
  -10.4853    8.7726    6.0700 C   0  0  0  0  0  0
  -10.0667    7.7375    5.2264 C   0  0  0  0  0  0
   -8.2053    4.6694    4.4284 C   0  0  0  0  0  0
   -8.0637    3.9524    5.5626 N   0  0  0  0  0  0
   -7.3151    2.8396    5.4416 C   0  0  0  0  0  0
   -6.7109    2.3878    4.3261 N   0  0  0  0  0  0
   -6.8941    3.1527    3.2299 C   0  0  0  0  0  0
   -7.6382    4.3147    3.2214 C   0  0  0  0  0  0
   -7.1454    2.0639    6.6092 N   0  0  0  0  0  0
   -7.6128    2.2136    7.9282 C   0  0  0  0  0  0
   -6.8701    1.7262    9.0036 C   0  0  0  0  0  0
   -7.3450    1.8804   10.3061 C   0  0  0  0  0  0
   -8.5626    2.5218   10.5331 C   0  0  0  0  0  0
   -9.3054    3.0091    9.4577 C   0  0  0  0  0  0
   -8.8304    2.8550    8.1552 C   0  0  0  0  0  0
  -10.5273    3.6565    9.6615 N   0  5  0  0  0  0
  -11.3860    4.1981    8.6974 C   0  0  0  0  0  0
  -11.2253    4.2064    7.4827 O   0  3  0  0  0  0
  -12.5967    4.8065    9.3216 C   0  0  0  0  0  0
  -13.5385    5.3771    8.5638 C   0  0  0  0  0  0
   -9.0240    2.6667   11.8606 N   0  3  1  0  0  0
   -9.8566    1.6454   12.4612 C   0  0  0  0  0  0
   -8.6577    3.8316   12.6392 C   0  0  0  0  0  0
   -7.3730    3.6110   13.4127 C   0  0  0  0  0  0
   -7.0029    4.7637   14.1884 N   0  0  0  0  0  0
   -6.3474    5.7829   13.3541 C   0  0  0  0  0  0
   -6.1152    4.3969   15.3029 C   0  0  0  0  0  0
   -5.6781    1.0964    8.8026 O   0  0  0  0  0  0
   -4.5083    1.9117    8.7953 C   0  0  0  0  0  0
  -11.2978    7.8541    2.0711 H   0  0  0  0  0  0
  -10.8358    9.3150    3.0085 H   0  0  0  0  0  0
  -12.2454    8.3270    3.5220 H   0  0  0  0  0  0
   -9.8536    5.9989    2.4662 H   0  0  0  0  0  0
   -8.0590    5.9728    7.3411 H   0  0  0  0  0  0
   -8.7828    7.7922    8.8564 H   0  0  0  0  0  0
  -10.3114    9.5603    8.0644 H   0  0  0  0  0  0
  -11.1571    9.5522    5.7266 H   0  0  0  0  0  0
   -6.4097    2.7934    2.3281 H   0  0  0  0  0  0
   -7.7593    4.8995    2.3179 H   0  0  0  0  0  0
   -6.5444    1.1432    6.5753 H   0  0  0  0  0  0
   -6.7620    1.4983   11.1409 H   0  0  0  0  0  0
   -9.4089    3.2354    7.3157 H   0  0  0  0  0  0
  -12.7106    4.7827   10.4154 H   0  0  0  0  0  0
  -14.4274    5.8229    9.0340 H   0  0  0  0  0  0
  -13.4246    5.4009    7.4700 H   0  0  0  0  0  0
  -10.1108    1.9382   13.4906 H   0  0  0  0  0  0
   -9.3118    0.6899   12.4757 H   0  0  0  0  0  0
  -10.7796    1.5324   11.8735 H   0  0  0  0  0  0
   -8.5131    4.6908   11.9677 H   0  0  0  0  0  0
   -9.4587    4.0589   13.3581 H   0  0  0  0  0  0
   -7.5004    2.7621   14.1006 H   0  0  0  0  0  0
   -6.5547    3.3941   12.7103 H   0  0  0  0  0  0
   -6.0781    6.6487   13.9769 H   0  0  0  0  0  0
   -7.0359    6.1035   12.5583 H   0  0  0  0  0  0
   -5.4382    5.3584   12.9033 H   0  0  0  0  0  0
   -5.8520    5.2993   15.8742 H   0  0  0  0  0  0
   -5.1997    3.9345   14.9055 H   0  0  0  0  0  0
   -6.6303    3.6827   15.9622 H   0  0  0  0  0  0
   -3.6231    1.2814    8.6245 H   0  0  0  0  0  0
   -4.4123    2.4239    9.7640 H   0  0  0  0  0  0
   -4.5871    2.6588    7.9917 H   0  0  0  0  0  0
  -11.9817    4.6680    6.8310 H   0  0  0  0  0  0
   -9.9228    3.1826   11.4919 H   0  0  0  0  0  0
  1  2  1  0  0  0
  1 38  1  0  0  0
  1 39  1  0  0  0
  1 40  1  0  0  0
  2 10  1  0  0  0
  2  3  1  0  0  0
  3  4  2  0  0  0
  3 41  1  0  0  0
  4  5  1  0  0  0
  4 11  1  0  0  0
  5 10  2  0  0  0
  5  6  1  0  0  0
  6  7  2  0  0  0
  6 42  1  0  0  0
  7  8  1  0  0  0
  7 43  1  0  0  0
  8  9  2  0  0  0
  8 44  1  0  0  0
  9 10  1  0  0  0
  9 45  1  0  0  0
 11 16  2  0  0  0
 11 12  1  0  0  0
 12 13  2  0  0  0
 13 14  1  0  0  0
 13 17  1  0  0  0
 14 15  2  0  0  0
 15 16  1  0  0  0
 15 46  1  0  0  0
 16 47  1  0  0  0
 17 18  1  0  0  0
 17 48  1  0  0  0
 18 23  2  0  0  0
 18 19  1  0  0  0
 19 20  2  0  0  0
 19 36  1  0  0  0
 20 21  1  0  0  0
 20 49  1  0  0  0
 21 22  2  0  0  0
 21 29  1  0  0  0
 22 23  1  0  0  0
 22 24  1  0  0  0
 23 50  1  0  0  0
 24 25  1  0  0  0
 25 26  2  0  0  0
 25 27  1  0  0  0
 26 70  1  0  0  0
 27 28  2  0  0  0
 27 51  1  0  0  0
 28 52  1  0  0  0
 28 53  1  0  0  0
 29 30  1  0  0  0
 29 31  1  0  0  0
 29 71  1  0  0  0
 30 54  1  0  0  0
 30 55  1  0  0  0
 30 56  1  0  0  0
 31 32  1  0  0  0
 31 57  1  0  0  0
 31 58  1  0  0  0
 32 33  1  0  0  0
 32 59  1  0  0  0
 32 60  1  0  0  0
 33 34  1  0  0  0
 33 35  1  0  0  0
 34 61  1  0  0  0
 34 62  1  0  0  0
 34 63  1  0  0  0
 35 64  1  0  0  0
 35 65  1  0  0  0
 35 66  1  0  0  0
 36 37  1  0  0  0
 37 67  1  0  0  0
 37 68  1  0  0  0
 37 69  1  0  0  0
M  CHG  3  24  -1  26   1  29   1
M  END
> <s_m_source_file>
/Users/andrea/Development/mcce-charges/epik_inhibitors/output/Osimertinib/Osimertinib-input.mol2

> <i_m_source_file_index>
1

> <r_epik_Ionization_Penalty>
  0.0410

> <r_epik_Ionization_Penalty_Charging>
  0.0290

> <r_epik_Ionization_Penalty_Neutral>
  0.0120

> <r_epik_State_Penalty>
  5.3601

> <i_epik_Tot_Q>
1

$$$$
~{N}-[2-[2-(dimethylamino)ethyl-methyl-amino]-4-methoxy-5-[[4-(1-methylindol-3-yl)pyrimidin-2-yl]amino]phenyl]prop-2-enamide
                    3D
 Structure written by MMmdl.
 72 75  0  0  1  0            999 V2000
  -11.2397    8.2942    3.0775 C   0  0  0  0  0  0
  -10.3716    7.4871    3.9075 N   0  0  0  0  0  0
   -9.7322    6.3538    3.4818 C   0  0  0  0  0  0
   -9.0005    5.8589    4.5366 C   0  0  0  0  0  0
   -9.2027    6.7245    5.6479 C   0  0  0  0  0  0
   -8.7321    6.7433    6.9759 C   0  0  0  0  0  0
   -9.1424    7.7725    7.8310 C   0  0  0  0  0  0
  -10.0056    8.7705    7.3830 C   0  0  0  0  0  0
  -10.4853    8.7726    6.0700 C   0  0  0  0  0  0
  -10.0667    7.7375    5.2264 C   0  0  0  0  0  0
   -8.2053    4.6694    4.4284 C   0  0  0  0  0  0
   -8.0637    3.9524    5.5626 N   0  0  0  0  0  0
   -7.3151    2.8396    5.4416 C   0  0  0  0  0  0
   -6.7109    2.3878    4.3261 N   0  0  0  0  0  0
   -6.8941    3.1527    3.2299 C   0  0  0  0  0  0
   -7.6382    4.3147    3.2214 C   0  0  0  0  0  0
   -7.1454    2.0639    6.6092 N   0  0  0  0  0  0
   -7.6128    2.2136    7.9282 C   0  0  0  0  0  0
   -6.8701    1.7262    9.0036 C   0  0  0  0  0  0
   -7.3450    1.8804   10.3061 C   0  0  0  0  0  0
   -8.5626    2.5218   10.5331 C   0  0  0  0  0  0
   -9.3054    3.0091    9.4577 C   0  0  0  0  0  0
   -8.8304    2.8550    8.1552 C   0  0  0  0  0  0
  -10.5273    3.6565    9.6615 N   0  0  0  0  0  0
  -11.3860    4.1981    8.6974 C   0  0  0  0  0  0
  -11.2253    4.2064    7.4827 O   0  0  0  0  0  0
  -12.5967    4.8065    9.3216 C   0  0  0  0  0  0
  -13.5385    5.3771    8.5638 C   0  0  0  0  0  0
   -9.0240    2.6667   11.8606 N   0  3  1  0  0  0
   -9.8566    1.6454   12.4612 C   0  0  0  0  0  0
   -8.6577    3.8316   12.6392 C   0  0  0  0  0  0
   -7.3730    3.6110   13.4127 C   0  0  0  0  0  0
   -7.0029    4.7637   14.1884 N   0  3  0  0  0  0
   -6.3474    5.7829   13.3541 C   0  0  0  0  0  0
   -6.1152    4.3969   15.3029 C   0  0  0  0  0  0
   -5.6781    1.0964    8.8026 O   0  0  0  0  0  0
   -4.5083    1.9117    8.7953 C   0  0  0  0  0  0
  -11.2978    7.8541    2.0711 H   0  0  0  0  0  0
  -10.8358    9.3150    3.0085 H   0  0  0  0  0  0
  -12.2454    8.3270    3.5220 H   0  0  0  0  0  0
   -9.8536    5.9989    2.4662 H   0  0  0  0  0  0
   -8.0590    5.9728    7.3411 H   0  0  0  0  0  0
   -8.7828    7.7922    8.8564 H   0  0  0  0  0  0
  -10.3114    9.5603    8.0644 H   0  0  0  0  0  0
  -11.1571    9.5522    5.7266 H   0  0  0  0  0  0
   -6.4097    2.7934    2.3281 H   0  0  0  0  0  0
   -7.7593    4.8995    2.3179 H   0  0  0  0  0  0
   -6.5444    1.1432    6.5753 H   0  0  0  0  0  0
   -6.7620    1.4983   11.1409 H   0  0  0  0  0  0
   -9.4089    3.2354    7.3157 H   0  0  0  0  0  0
  -10.9166    3.7880   10.6819 H   0  0  0  0  0  0
  -12.7106    4.7827   10.4154 H   0  0  0  0  0  0
  -14.4274    5.8229    9.0340 H   0  0  0  0  0  0
  -13.4246    5.4009    7.4700 H   0  0  0  0  0  0
  -10.1108    1.9382   13.4906 H   0  0  0  0  0  0
   -9.3118    0.6899   12.4757 H   0  0  0  0  0  0
  -10.7796    1.5324   11.8735 H   0  0  0  0  0  0
   -8.5131    4.6908   11.9677 H   0  0  0  0  0  0
   -9.4587    4.0589   13.3581 H   0  0  0  0  0  0
   -7.5004    2.7621   14.1006 H   0  0  0  0  0  0
   -6.5547    3.3941   12.7103 H   0  0  0  0  0  0
   -6.0781    6.6487   13.9769 H   0  0  0  0  0  0
   -7.0359    6.1035   12.5583 H   0  0  0  0  0  0
   -5.4382    5.3584   12.9033 H   0  0  0  0  0  0
   -5.8520    5.2993   15.8742 H   0  0  0  0  0  0
   -5.1997    3.9345   14.9055 H   0  0  0  0  0  0
   -6.6303    3.6827   15.9622 H   0  0  0  0  0  0
   -3.6231    1.2814    8.6245 H   0  0  0  0  0  0
   -4.4123    2.4239    9.7640 H   0  0  0  0  0  0
   -4.5871    2.6588    7.9917 H   0  0  0  0  0  0
   -7.9460    5.1659   14.5868 H   0  0  0  0  0  0
   -9.9228    3.1826   11.4919 H   0  0  0  0  0  0
  1  2  1  0  0  0
  1 38  1  0  0  0
  1 39  1  0  0  0
  1 40  1  0  0  0
  2 10  1  0  0  0
  2  3  1  0  0  0
  3  4  2  0  0  0
  3 41  1  0  0  0
  4  5  1  0  0  0
  4 11  1  0  0  0
  5 10  2  0  0  0
  5  6  1  0  0  0
  6  7  2  0  0  0
  6 42  1  0  0  0
  7  8  1  0  0  0
  7 43  1  0  0  0
  8  9  2  0  0  0
  8 44  1  0  0  0
  9 10  1  0  0  0
  9 45  1  0  0  0
 11 16  2  0  0  0
 11 12  1  0  0  0
 12 13  2  0  0  0
 13 14  1  0  0  0
 13 17  1  0  0  0
 14 15  2  0  0  0
 15 16  1  0  0  0
 15 46  1  0  0  0
 16 47  1  0  0  0
 17 18  1  0  0  0
 17 48  1  0  0  0
 18 23  2  0  0  0
 18 19  1  0  0  0
 19 20  2  0  0  0
 19 36  1  0  0  0
 20 21  1  0  0  0
 20 49  1  0  0  0
 21 22  2  0  0  0
 21 29  1  0  0  0
 22 23  1  0  0  0
 22 24  1  0  0  0
 23 50  1  0  0  0
 24 25  1  0  0  0
 24 51  1  0  0  0
 25 26  2  0  0  0
 25 27  1  0  0  0
 27 28  2  0  0  0
 27 52  1  0  0  0
 28 53  1  0  0  0
 28 54  1  0  0  0
 29 30  1  0  0  0
 29 31  1  0  0  0
 29 72  1  0  0  0
 30 55  1  0  0  0
 30 56  1  0  0  0
 30 57  1  0  0  0
 31 32  1  0  0  0
 31 58  1  0  0  0
 31 59  1  0  0  0
 32 33  1  0  0  0
 32 60  1  0  0  0
 32 61  1  0  0  0
 33 34  1  0  0  0
 33 35  1  0  0  0
 33 71  1  0  0  0
 34 62  1  0  0  0
 34 63  1  0  0  0
 34 64  1  0  0  0
 35 65  1  0  0  0
 35 66  1  0  0  0
 35 67  1  0  0  0
 36 37  1  0  0  0
 37 68  1  0  0  0
 37 69  1  0  0  0
 37 70  1  0  0  0
M  CHG  2  29   1  33   1
M  END
> <s_m_source_file>
/Users/andrea/Development/mcce-charges/epik_inhibitors/output/Osimertinib/Osimertinib-input.mol2

> <i_m_source_file_index>
1

> <r_epik_Ionization_Penalty>
  7.3603

> <r_epik_Ionization_Penalty_Charging>
  7.3595

> <r_epik_Ionization_Penalty_Neutral>
  0.0008

> <r_epik_State_Penalty>
  5.8240

> <i_epik_Tot_Q>
2

$$$$
~{N}-[2-[2-(dimethylamino)ethyl-methyl-amino]-4-methoxy-5-[[4-(1-methylindol-3-yl)pyrimidin-2-yl]amino]phenyl]prop-2-enamide
                    3D
 Structure written by MMmdl.
 72 75  0  0  1  0            999 V2000
  -11.2397    8.2942    3.0775 C   0  0  0  0  0  0
  -10.3716    7.4871    3.9075 N   0  0  0  0  0  0
   -9.7322    6.3538    3.4818 C   0  0  0  0  0  0
   -9.0005    5.8589    4.5366 C   0  0  0  0  0  0
   -9.2027    6.7245    5.6479 C   0  0  0  0  0  0
   -8.7321    6.7433    6.9759 C   0  0  0  0  0  0
   -9.1424    7.7725    7.8310 C   0  0  0  0  0  0
  -10.0056    8.7705    7.3830 C   0  0  0  0  0  0
  -10.4853    8.7726    6.0700 C   0  0  0  0  0  0
  -10.0667    7.7375    5.2264 C   0  0  0  0  0  0
   -8.2053    4.6694    4.4284 C   0  0  0  0  0  0
   -8.0637    3.9524    5.5626 N   0  0  0  0  0  0
   -7.3151    2.8396    5.4416 C   0  0  0  0  0  0
   -6.7109    2.3878    4.3261 N   0  0  0  0  0  0
   -6.8941    3.1527    3.2299 C   0  0  0  0  0  0
   -7.6382    4.3147    3.2214 C   0  0  0  0  0  0
   -7.1454    2.0639    6.6092 N   0  0  0  0  0  0
   -7.6128    2.2136    7.9282 C   0  0  0  0  0  0
   -6.8701    1.7262    9.0036 C   0  0  0  0  0  0
   -7.3450    1.8804   10.3061 C   0  0  0  0  0  0
   -8.5626    2.5218   10.5331 C   0  0  0  0  0  0
   -9.3054    3.0091    9.4577 C   0  0  0  0  0  0
   -8.8304    2.8550    8.1552 C   0  0  0  0  0  0
  -10.5273    3.6565    9.6615 N   0  0  0  0  0  0
  -11.3860    4.1981    8.6974 C   0  0  0  0  0  0
  -11.2253    4.2064    7.4827 O   0  3  0  0  0  0
  -12.5967    4.8065    9.3216 C   0  0  0  0  0  0
  -13.5385    5.3771    8.5638 C   0  0  0  0  0  0
   -9.0240    2.6667   11.8606 N   0  0  0  0  0  0
   -9.8566    1.6454   12.4612 C   0  0  0  0  0  0
   -8.6577    3.8316   12.6392 C   0  0  0  0  0  0
   -7.3730    3.6110   13.4127 C   0  0  0  0  0  0
   -7.0029    4.7637   14.1884 N   0  3  0  0  0  0
   -6.3474    5.7829   13.3541 C   0  0  0  0  0  0
   -6.1152    4.3969   15.3029 C   0  0  0  0  0  0
   -5.6781    1.0964    8.8026 O   0  0  0  0  0  0
   -4.5083    1.9117    8.7953 C   0  0  0  0  0  0
  -11.2978    7.8541    2.0711 H   0  0  0  0  0  0
  -10.8358    9.3150    3.0085 H   0  0  0  0  0  0
  -12.2454    8.3270    3.5220 H   0  0  0  0  0  0
   -9.8536    5.9989    2.4662 H   0  0  0  0  0  0
   -8.0590    5.9728    7.3411 H   0  0  0  0  0  0
   -8.7828    7.7922    8.8564 H   0  0  0  0  0  0
  -10.3114    9.5603    8.0644 H   0  0  0  0  0  0
  -11.1571    9.5522    5.7266 H   0  0  0  0  0  0
   -6.4097    2.7934    2.3281 H   0  0  0  0  0  0
   -7.7593    4.8995    2.3179 H   0  0  0  0  0  0
   -6.5444    1.1432    6.5753 H   0  0  0  0  0  0
   -6.7620    1.4983   11.1409 H   0  0  0  0  0  0
   -9.4089    3.2354    7.3157 H   0  0  0  0  0  0
  -10.9166    3.7880   10.6819 H   0  0  0  0  0  0
  -12.7106    4.7827   10.4154 H   0  0  0  0  0  0
  -14.4274    5.8229    9.0340 H   0  0  0  0  0  0
  -13.4246    5.4009    7.4700 H   0  0  0  0  0  0
  -10.1108    1.9382   13.4906 H   0  0  0  0  0  0
   -9.3118    0.6899   12.4757 H   0  0  0  0  0  0
  -10.7796    1.5324   11.8735 H   0  0  0  0  0  0
   -8.5131    4.6908   11.9677 H   0  0  0  0  0  0
   -9.4587    4.0589   13.3581 H   0  0  0  0  0  0
   -7.5004    2.7621   14.1006 H   0  0  0  0  0  0
   -6.5547    3.3941   12.7103 H   0  0  0  0  0  0
   -6.0781    6.6487   13.9769 H   0  0  0  0  0  0
   -7.0359    6.1035   12.5583 H   0  0  0  0  0  0
   -5.4382    5.3584   12.9033 H   0  0  0  0  0  0
   -5.8520    5.2993   15.8742 H   0  0  0  0  0  0
   -5.1997    3.9345   14.9055 H   0  0  0  0  0  0
   -6.6303    3.6827   15.9622 H   0  0  0  0  0  0
   -3.6231    1.2814    8.6245 H   0  0  0  0  0  0
   -4.4123    2.4239    9.7640 H   0  0  0  0  0  0
   -4.5871    2.6588    7.9917 H   0  0  0  0  0  0
   -7.9460    5.1659   14.5868 H   0  0  0  0  0  0
  -11.9817    4.6680    6.8310 H   0  0  0  0  0  0
  1  2  1  0  0  0
  1 38  1  0  0  0
  1 39  1  0  0  0
  1 40  1  0  0  0
  2 10  1  0  0  0
  2  3  1  0  0  0
  3  4  2  0  0  0
  3 41  1  0  0  0
  4  5  1  0  0  0
  4 11  1  0  0  0
  5 10  2  0  0  0
  5  6  1  0  0  0
  6  7  2  0  0  0
  6 42  1  0  0  0
  7  8  1  0  0  0
  7 43  1  0  0  0
  8  9  2  0  0  0
  8 44  1  0  0  0
  9 10  1  0  0  0
  9 45  1  0  0  0
 11 16  2  0  0  0
 11 12  1  0  0  0
 12 13  2  0  0  0
 13 14  1  0  0  0
 13 17  1  0  0  0
 14 15  2  0  0  0
 15 16  1  0  0  0
 15 46  1  0  0  0
 16 47  1  0  0  0
 17 18  1  0  0  0
 17 48  1  0  0  0
 18 23  2  0  0  0
 18 19  1  0  0  0
 19 20  2  0  0  0
 19 36  1  0  0  0
 20 21  1  0  0  0
 20 49  1  0  0  0
 21 22  2  0  0  0
 21 29  1  0  0  0
 22 23  1  0  0  0
 22 24  1  0  0  0
 23 50  1  0  0  0
 24 25  1  0  0  0
 24 51  1  0  0  0
 25 26  2  0  0  0
 25 27  1  0  0  0
 26 72  1  0  0  0
 27 28  2  0  0  0
 27 52  1  0  0  0
 28 53  1  0  0  0
 28 54  1  0  0  0
 29 30  1  0  0  0
 29 31  1  0  0  0
 30 55  1  0  0  0
 30 56  1  0  0  0
 30 57  1  0  0  0
 31 32  1  0  0  0
 31 58  1  0  0  0
 31 59  1  0  0  0
 32 33  1  0  0  0
 32 60  1  0  0  0
 32 61  1  0  0  0
 33 34  1  0  0  0
 33 35  1  0  0  0
 33 71  1  0  0  0
 34 62  1  0  0  0
 34 63  1  0  0  0
 34 64  1  0  0  0
 35 65  1  0  0  0
 35 66  1  0  0  0
 35 67  1  0  0  0
 36 37  1  0  0  0
 37 68  1  0  0  0
 37 69  1  0  0  0
 37 70  1  0  0  0
M  CHG  2  26   1  33   1
M  END
> <s_m_source_file>
/Users/andrea/Development/mcce-charges/epik_inhibitors/output/Osimertinib/Osimertinib-input.mol2

> <i_m_source_file_index>
1

> <r_lp_tautomer_probability>
0.999999812000036

> <r_epik_Ionization_Penalty>
  6.4717

> <r_epik_Ionization_Penalty_Charging>
  4.4028

> <r_epik_Ionization_Penalty_Neutral>
  2.0689

> <r_epik_State_Penalty>
  5.9354

> <i_epik_Tot_Q>
2

$$$$
~{N}-[2-[2-(dimethylamino)ethyl-methyl-amino]-4-methoxy-5-[[4-(1-methylindol-3-yl)pyrimidin-2-yl]amino]phenyl]prop-2-enamide
                    3D
 Structure written by MMmdl.
 72 75  0  0  1  0            999 V2000
  -11.2485    8.2871    3.0758 C   0  0  0  0  0  0
  -10.3788    7.4818    3.9058 N   0  0  0  0  0  0
   -9.7382    6.3490    3.4806 C   0  0  0  0  0  0
   -9.0051    5.8559    4.5353 C   0  0  0  0  0  0
   -9.2076    6.7222    5.6460 C   0  0  0  0  0  0
   -8.7361    6.7427    6.9737 C   0  0  0  0  0  0
   -9.1471    7.7721    7.8282 C   0  0  0  0  0  0
  -10.0119    8.7686    7.3800 C   0  0  0  0  0  0
  -10.4926    8.7690    6.0673 C   0  0  0  0  0  0
  -10.0732    7.7337    5.2243 C   0  0  0  0  0  0
   -8.2084    4.6674    4.4275 C   0  0  0  0  0  0
   -8.0653    3.9514    5.5622 N   0  0  0  0  0  0
   -7.3151    2.8396    5.4416 C   0  0  0  0  0  0
   -6.7095    2.3887    4.3265 N   0  0  0  0  0  0
   -6.8928    3.1535    3.2303 C   0  0  0  0  0  0
   -7.6410    4.3129    3.2206 C   0  0  0  0  0  0
   -7.1454    2.0639    6.6092 N   0  0  0  0  0  0
   -7.6128    2.2136    7.9282 C   0  0  0  0  0  0
   -6.8701    1.7262    9.0036 C   0  0  0  0  0  0
   -7.3450    1.8804   10.3061 C   0  0  0  0  0  0
   -8.5626    2.5218   10.5331 C   0  0  0  0  0  0
   -9.3054    3.0091    9.4577 C   0  0  0  0  0  0
   -8.8304    2.8550    8.1552 C   0  0  0  0  0  0
  -10.5273    3.6565    9.6615 N   0  3  0  0  0  0
  -11.3860    4.1981    8.6974 C   0  0  0  0  0  0
  -11.2253    4.2064    7.4827 O   0  0  0  0  0  0
  -12.5967    4.8065    9.3216 C   0  0  0  0  0  0
  -13.5385    5.3771    8.5638 C   0  0  0  0  0  0
   -9.0240    2.6667   11.8606 N   0  0  0  0  0  0
   -9.8566    1.6454   12.4612 C   0  0  0  0  0  0
   -8.6577    3.8316   12.6392 C   0  0  0  0  0  0
   -7.3730    3.6110   13.4127 C   0  0  0  0  0  0
   -7.0029    4.7637   14.1884 N   0  3  0  0  0  0
   -6.3474    5.7829   13.3541 C   0  0  0  0  0  0
   -6.1152    4.3969   15.3029 C   0  0  0  0  0  0
   -5.6781    1.0964    8.8026 O   0  0  0  0  0  0
   -4.5083    1.9117    8.7953 C   0  0  0  0  0  0
  -11.3068    7.8461    2.0698 H   0  0  0  0  0  0
  -10.8460    9.3084    3.0057 H   0  0  0  0  0  0
  -12.2539    8.3190    3.5210 H   0  0  0  0  0  0
   -9.7279    5.8755    2.5999 H   0  0  0  0  0  0
   -8.1153    6.0334    7.3077 H   0  0  0  0  0  0
   -8.8199    7.7984    8.7728 H   0  0  0  0  0  0
  -10.2881    9.4911    8.0138 H   0  0  0  0  0  0
  -11.1125    9.4918    5.7621 H   0  0  0  0  0  0
   -6.4493    2.8377    2.3915 H   0  0  0  0  0  0
   -7.7425    4.8355    2.3741 H   0  0  0  0  0  0
   -6.7620    1.4983   11.1409 H   0  0  0  0  0  0
   -9.4089    3.2354    7.3157 H   0  0  0  0  0  0
  -12.7106    4.7827   10.4154 H   0  0  0  0  0  0
  -14.4274    5.8229    9.0340 H   0  0  0  0  0  0
  -13.4246    5.4009    7.4700 H   0  0  0  0  0  0
  -10.1108    1.9382   13.4906 H   0  0  0  0  0  0
   -9.3118    0.6899   12.4757 H   0  0  0  0  0  0
  -10.7796    1.5324   11.8735 H   0  0  0  0  0  0
   -8.5131    4.6908   11.9677 H   0  0  0  0  0  0
   -9.4587    4.0589   13.3581 H   0  0  0  0  0  0
   -7.5004    2.7621   14.1006 H   0  0  0  0  0  0
   -6.5547    3.3941   12.7103 H   0  0  0  0  0  0
   -6.0781    6.6487   13.9769 H   0  0  0  0  0  0
   -7.0359    6.1035   12.5583 H   0  0  0  0  0  0
   -5.4382    5.3584   12.9033 H   0  0  0  0  0  0
   -5.8520    5.2993   15.8742 H   0  0  0  0  0  0
   -5.1997    3.9345   14.9055 H   0  0  0  0  0  0
   -6.6303    3.6827   15.9622 H   0  0  0  0  0  0
   -3.6231    1.2814    8.6245 H   0  0  0  0  0  0
   -4.4123    2.4239    9.7640 H   0  0  0  0  0  0
   -4.5871    2.6588    7.9917 H   0  0  0  0  0  0
   -7.9460    5.1659   14.5868 H   0  0  0  0  0  0
  -11.9817    4.6680    6.8310 H   0  0  0  0  0  0
   -6.5444    1.1432    6.5753 H   0  0  0  0  0  0
  -10.7904    3.7159   10.7279 H   0  0  0  0  0  0
  1  2  1  0  0  0
  1 38  1  0  0  0
  1 39  1  0  0  0
  1 40  1  0  0  0
  2 10  1  0  0  0
  2  3  1  0  0  0
  3  4  2  0  0  0
  3 41  1  0  0  0
  4  5  1  0  0  0
  4 11  1  0  0  0
  5 10  2  0  0  0
  5  6  1  0  0  0
  6  7  2  0  0  0
  6 42  1  0  0  0
  7  8  1  0  0  0
  7 43  1  0  0  0
  8  9  2  0  0  0
  8 44  1  0  0  0
  9 10  1  0  0  0
  9 45  1  0  0  0
 11 16  2  0  0  0
 11 12  1  0  0  0
 12 13  2  0  0  0
 13 17  1  0  0  0
 13 14  1  0  0  0
 14 15  2  0  0  0
 15 46  1  0  0  0
 15 16  1  0  0  0
 16 47  1  0  0  0
 17 18  1  0  0  0
 17 71  1  0  0  0
 18 23  2  0  0  0
 18 19  1  0  0  0
 19 20  2  0  0  0
 19 36  1  0  0  0
 20 21  1  0  0  0
 20 48  1  0  0  0
 21 22  2  0  0  0
 21 29  1  0  0  0
 22 23  1  0  0  0
 22 24  1  0  0  0
 23 49  1  0  0  0
 24 25  2  0  0  0
 24 72  1  0  0  0
 25 26  1  0  0  0
 25 27  1  0  0  0
 26 70  1  0  0  0
 27 28  2  0  0  0
 27 50  1  0  0  0
 28 51  1  0  0  0
 28 52  1  0  0  0
 29 30  1  0  0  0
 29 31  1  0  0  0
 30 53  1  0  0  0
 30 54  1  0  0  0
 30 55  1  0  0  0
 31 32  1  0  0  0
 31 56  1  0  0  0
 31 57  1  0  0  0
 32 33  1  0  0  0
 32 58  1  0  0  0
 32 59  1  0  0  0
 33 34  1  0  0  0
 33 35  1  0  0  0
 33 69  1  0  0  0
 34 60  1  0  0  0
 34 61  1  0  0  0
 34 62  1  0  0  0
 35 63  1  0  0  0
 35 64  1  0  0  0
 35 65  1  0  0  0
 36 37  1  0  0  0
 37 66  1  0  0  0
 37 67  1  0  0  0
 37 68  1  0  0  0
M  CHG  2  24   1  33   1
M  END
> <s_m_source_file>
/Users/andrea/Development/mcce-charges/epik_inhibitors/output/Osimertinib/Osimertinib-input.mol2

> <i_m_source_file_index>
1

> <r_lp_tautomer_probability>
0.999999812000036

> <r_epik_Ionization_Penalty>
  7.9402

> <r_epik_Ionization_Penalty_Charging>
  7.9402

> <r_epik_Ionization_Penalty_Neutral>
  0.0000

> <r_epik_State_Penalty>
  6.1893

> <i_epik_Tot_Q>
2

> <s_epik_Chemistry_Notes>
This compound has an imine and may undergo hydrolysis.

$$$$
~{N}-[2-[2-(dimethylamino)ethyl-methyl-amino]-4-methoxy-5-[[4-(1-methylindol-3-yl)pyrimidin-2-yl]amino]phenyl]prop-2-enamide
                    3D
 Structure written by MMmdl.
 70 73  0  0  1  0            999 V2000
  -11.2485    8.2871    3.0758 C   0  0  0  0  0  0
  -10.3788    7.4818    3.9058 N   0  0  0  0  0  0
   -9.7382    6.3490    3.4806 C   0  0  0  0  0  0
   -9.0051    5.8559    4.5353 C   0  0  0  0  0  0
   -9.2076    6.7222    5.6460 C   0  0  0  0  0  0
   -8.7361    6.7427    6.9737 C   0  0  0  0  0  0
   -9.1471    7.7721    7.8282 C   0  0  0  0  0  0
  -10.0119    8.7686    7.3800 C   0  0  0  0  0  0
  -10.4926    8.7690    6.0673 C   0  0  0  0  0  0
  -10.0732    7.7337    5.2243 C   0  0  0  0  0  0
   -8.2084    4.6674    4.4275 C   0  0  0  0  0  0
   -8.0653    3.9514    5.5622 N   0  0  0  0  0  0
   -7.3151    2.8396    5.4416 C   0  0  0  0  0  0
   -6.7095    2.3887    4.3265 N   0  0  0  0  0  0
   -6.8928    3.1535    3.2303 C   0  0  0  0  0  0
   -7.6410    4.3129    3.2206 C   0  0  0  0  0  0
   -7.1454    2.0639    6.6092 N   0  0  0  0  0  0
   -7.6128    2.2136    7.9282 C   0  0  0  0  0  0
   -6.8701    1.7262    9.0036 C   0  0  0  0  0  0
   -7.3450    1.8804   10.3061 C   0  0  0  0  0  0
   -8.5626    2.5218   10.5331 C   0  0  0  0  0  0
   -9.3054    3.0091    9.4577 C   0  0  0  0  0  0
   -8.8304    2.8550    8.1552 C   0  0  0  0  0  0
  -10.5273    3.6565    9.6615 N   0  0  0  0  0  0
  -11.3860    4.1981    8.6974 C   0  0  0  0  0  0
  -11.2253    4.2064    7.4827 O   0  0  0  0  0  0
  -12.5967    4.8065    9.3216 C   0  0  0  0  0  0
  -13.5385    5.3771    8.5638 C   0  0  0  0  0  0
   -9.0240    2.6667   11.8606 N   0  0  0  0  0  0
   -9.8566    1.6454   12.4612 C   0  0  0  0  0  0
   -8.6577    3.8316   12.6392 C   0  0  0  0  0  0
   -7.3730    3.6110   13.4127 C   0  0  0  0  0  0
   -7.0029    4.7637   14.1884 N   0  0  0  0  0  0
   -6.3474    5.7829   13.3541 C   0  0  0  0  0  0
   -6.1152    4.3969   15.3029 C   0  0  0  0  0  0
   -5.6781    1.0964    8.8026 O   0  0  0  0  0  0
   -4.5083    1.9117    8.7953 C   0  0  0  0  0  0
  -11.3068    7.8461    2.0698 H   0  0  0  0  0  0
  -10.8460    9.3084    3.0057 H   0  0  0  0  0  0
  -12.2539    8.3190    3.5210 H   0  0  0  0  0  0
   -9.7279    5.8755    2.5999 H   0  0  0  0  0  0
   -8.1153    6.0334    7.3077 H   0  0  0  0  0  0
   -8.8199    7.7984    8.7728 H   0  0  0  0  0  0
  -10.2881    9.4911    8.0138 H   0  0  0  0  0  0
  -11.1125    9.4918    5.7621 H   0  0  0  0  0  0
   -6.4493    2.8377    2.3915 H   0  0  0  0  0  0
   -7.7425    4.8355    2.3741 H   0  0  0  0  0  0
   -6.7620    1.4983   11.1409 H   0  0  0  0  0  0
   -9.4089    3.2354    7.3157 H   0  0  0  0  0  0
  -12.7106    4.7827   10.4154 H   0  0  0  0  0  0
  -14.4274    5.8229    9.0340 H   0  0  0  0  0  0
  -13.4246    5.4009    7.4700 H   0  0  0  0  0  0
  -10.1108    1.9382   13.4906 H   0  0  0  0  0  0
   -9.3118    0.6899   12.4757 H   0  0  0  0  0  0
  -10.7796    1.5324   11.8735 H   0  0  0  0  0  0
   -8.5131    4.6908   11.9677 H   0  0  0  0  0  0
   -9.4587    4.0589   13.3581 H   0  0  0  0  0  0
   -7.5004    2.7621   14.1006 H   0  0  0  0  0  0
   -6.5547    3.3941   12.7103 H   0  0  0  0  0  0
   -6.0781    6.6487   13.9769 H   0  0  0  0  0  0
   -7.0359    6.1035   12.5583 H   0  0  0  0  0  0
   -5.4382    5.3584   12.9033 H   0  0  0  0  0  0
   -5.8520    5.2993   15.8742 H   0  0  0  0  0  0
   -5.1997    3.9345   14.9055 H   0  0  0  0  0  0
   -6.6303    3.6827   15.9622 H   0  0  0  0  0  0
   -3.6231    1.2814    8.6245 H   0  0  0  0  0  0
   -4.4123    2.4239    9.7640 H   0  0  0  0  0  0
   -4.5871    2.6588    7.9917 H   0  0  0  0  0  0
  -11.9817    4.6680    6.8310 H   0  0  0  0  0  0
   -6.5444    1.1432    6.5753 H   0  0  0  0  0  0
  1  2  1  0  0  0
  1 38  1  0  0  0
  1 39  1  0  0  0
  1 40  1  0  0  0
  2 10  1  0  0  0
  2  3  1  0  0  0
  3  4  2  0  0  0
  3 41  1  0  0  0
  4  5  1  0  0  0
  4 11  1  0  0  0
  5 10  2  0  0  0
  5  6  1  0  0  0
  6  7  2  0  0  0
  6 42  1  0  0  0
  7  8  1  0  0  0
  7 43  1  0  0  0
  8  9  2  0  0  0
  8 44  1  0  0  0
  9 10  1  0  0  0
  9 45  1  0  0  0
 11 16  2  0  0  0
 11 12  1  0  0  0
 12 13  2  0  0  0
 13 17  1  0  0  0
 13 14  1  0  0  0
 14 15  2  0  0  0
 15 46  1  0  0  0
 15 16  1  0  0  0
 16 47  1  0  0  0
 17 18  1  0  0  0
 17 70  1  0  0  0
 18 23  2  0  0  0
 18 19  1  0  0  0
 19 20  2  0  0  0
 19 36  1  0  0  0
 20 21  1  0  0  0
 20 48  1  0  0  0
 21 22  2  0  0  0
 21 29  1  0  0  0
 22 23  1  0  0  0
 22 24  1  0  0  0
 23 49  1  0  0  0
 24 25  2  0  0  0
 25 26  1  0  0  0
 25 27  1  0  0  0
 26 69  1  0  0  0
 27 28  2  0  0  0
 27 50  1  0  0  0
 28 51  1  0  0  0
 28 52  1  0  0  0
 29 30  1  0  0  0
 29 31  1  0  0  0
 30 53  1  0  0  0
 30 54  1  0  0  0
 30 55  1  0  0  0
 31 32  1  0  0  0
 31 56  1  0  0  0
 31 57  1  0  0  0
 32 33  1  0  0  0
 32 58  1  0  0  0
 32 59  1  0  0  0
 33 34  1  0  0  0
 33 35  1  0  0  0
 34 60  1  0  0  0
 34 61  1  0  0  0
 34 62  1  0  0  0
 35 63  1  0  0  0
 35 64  1  0  0  0
 35 65  1  0  0  0
 36 37  1  0  0  0
 37 66  1  0  0  0
 37 67  1  0  0  0
 37 68  1  0  0  0
M  END
> <s_m_source_file>
/Users/andrea/Development/mcce-charges/epik_inhibitors/output/Osimertinib/Osimertinib-input.mol2

> <i_m_source_file_index>
1

> <r_lp_tautomer_probability>
0.999999812000036

> <r_epik_Ionization_Penalty>
  7.5573

> <r_epik_Ionization_Penalty_Charging>
  0.0000

> <r_epik_Ionization_Penalty_Neutral>
  7.5573

> <r_epik_State_Penalty>
  6.5746

> <i_epik_Tot_Q>
0

> <s_epik_Chemistry_Notes>
This compound has an imine and may undergo hydrolysis.

$$$$
~{N}-[2-[2-(dimethylamino)ethyl-methyl-amino]-4-methoxy-5-[[4-(1-methylindol-3-yl)pyrimidin-2-yl]amino]phenyl]prop-2-enamide
                    3D
 Structure written by MMmdl.
 70 73  0  0  1  0            999 V2000
  -11.2397    8.2942    3.0775 C   0  0  0  0  0  0
  -10.3716    7.4871    3.9075 N   0  0  0  0  0  0
   -9.7322    6.3538    3.4818 C   0  0  0  0  0  0
   -9.0005    5.8589    4.5366 C   0  0  0  0  0  0
   -9.2027    6.7245    5.6479 C   0  0  0  0  0  0
   -8.7321    6.7433    6.9759 C   0  0  0  0  0  0
   -9.1424    7.7725    7.8310 C   0  0  0  0  0  0
  -10.0056    8.7705    7.3830 C   0  0  0  0  0  0
  -10.4853    8.7726    6.0700 C   0  0  0  0  0  0
  -10.0667    7.7375    5.2264 C   0  0  0  0  0  0
   -8.2053    4.6694    4.4284 C   0  0  0  0  0  0
   -8.0637    3.9524    5.5626 N   0  0  0  0  0  0
   -7.3151    2.8396    5.4416 C   0  0  0  0  0  0
   -6.7109    2.3878    4.3261 N   0  0  0  0  0  0
   -6.8941    3.1527    3.2299 C   0  0  0  0  0  0
   -7.6382    4.3147    3.2214 C   0  0  0  0  0  0
   -7.1454    2.0639    6.6092 N   0  0  0  0  0  0
   -7.6128    2.2136    7.9282 C   0  0  0  0  0  0
   -6.8701    1.7262    9.0036 C   0  0  0  0  0  0
   -7.3450    1.8804   10.3061 C   0  0  0  0  0  0
   -8.5626    2.5218   10.5331 C   0  0  0  0  0  0
   -9.3054    3.0091    9.4577 C   0  0  0  0  0  0
   -8.8304    2.8550    8.1552 C   0  0  0  0  0  0
  -10.5273    3.6565    9.6615 N   0  5  0  0  0  0
  -11.3860    4.1981    8.6974 C   0  0  0  0  0  0
  -11.2253    4.2064    7.4827 O   0  3  0  0  0  0
  -12.5967    4.8065    9.3216 C   0  0  0  0  0  0
  -13.5385    5.3771    8.5638 C   0  0  0  0  0  0
   -9.0240    2.6667   11.8606 N   0  0  0  0  0  0
   -9.8566    1.6454   12.4612 C   0  0  0  0  0  0
   -8.6577    3.8316   12.6392 C   0  0  0  0  0  0
   -7.3730    3.6110   13.4127 C   0  0  0  0  0  0
   -7.0029    4.7637   14.1884 N   0  0  0  0  0  0
   -6.3474    5.7829   13.3541 C   0  0  0  0  0  0
   -6.1152    4.3969   15.3029 C   0  0  0  0  0  0
   -5.6781    1.0964    8.8026 O   0  0  0  0  0  0
   -4.5083    1.9117    8.7953 C   0  0  0  0  0  0
  -11.2978    7.8541    2.0711 H   0  0  0  0  0  0
  -10.8358    9.3150    3.0085 H   0  0  0  0  0  0
  -12.2454    8.3270    3.5220 H   0  0  0  0  0  0
   -9.8536    5.9989    2.4662 H   0  0  0  0  0  0
   -8.0590    5.9728    7.3411 H   0  0  0  0  0  0
   -8.7828    7.7922    8.8564 H   0  0  0  0  0  0
  -10.3114    9.5603    8.0644 H   0  0  0  0  0  0
  -11.1571    9.5522    5.7266 H   0  0  0  0  0  0
   -6.4097    2.7934    2.3281 H   0  0  0  0  0  0
   -7.7593    4.8995    2.3179 H   0  0  0  0  0  0
   -6.5444    1.1432    6.5753 H   0  0  0  0  0  0
   -6.7620    1.4983   11.1409 H   0  0  0  0  0  0
   -9.4089    3.2354    7.3157 H   0  0  0  0  0  0
  -12.7106    4.7827   10.4154 H   0  0  0  0  0  0
  -14.4274    5.8229    9.0340 H   0  0  0  0  0  0
  -13.4246    5.4009    7.4700 H   0  0  0  0  0  0
  -10.1108    1.9382   13.4906 H   0  0  0  0  0  0
   -9.3118    0.6899   12.4757 H   0  0  0  0  0  0
  -10.7796    1.5324   11.8735 H   0  0  0  0  0  0
   -8.5131    4.6908   11.9677 H   0  0  0  0  0  0
   -9.4587    4.0589   13.3581 H   0  0  0  0  0  0
   -7.5004    2.7621   14.1006 H   0  0  0  0  0  0
   -6.5547    3.3941   12.7103 H   0  0  0  0  0  0
   -6.0781    6.6487   13.9769 H   0  0  0  0  0  0
   -7.0359    6.1035   12.5583 H   0  0  0  0  0  0
   -5.4382    5.3584   12.9033 H   0  0  0  0  0  0
   -5.8520    5.2993   15.8742 H   0  0  0  0  0  0
   -5.1997    3.9345   14.9055 H   0  0  0  0  0  0
   -6.6303    3.6827   15.9622 H   0  0  0  0  0  0
   -3.6231    1.2814    8.6245 H   0  0  0  0  0  0
   -4.4123    2.4239    9.7640 H   0  0  0  0  0  0
   -4.5871    2.6588    7.9917 H   0  0  0  0  0  0
  -11.9817    4.6680    6.8310 H   0  0  0  0  0  0
  1  2  1  0  0  0
  1 38  1  0  0  0
  1 39  1  0  0  0
  1 40  1  0  0  0
  2 10  1  0  0  0
  2  3  1  0  0  0
  3  4  2  0  0  0
  3 41  1  0  0  0
  4  5  1  0  0  0
  4 11  1  0  0  0
  5 10  2  0  0  0
  5  6  1  0  0  0
  6  7  2  0  0  0
  6 42  1  0  0  0
  7  8  1  0  0  0
  7 43  1  0  0  0
  8  9  2  0  0  0
  8 44  1  0  0  0
  9 10  1  0  0  0
  9 45  1  0  0  0
 11 16  2  0  0  0
 11 12  1  0  0  0
 12 13  2  0  0  0
 13 14  1  0  0  0
 13 17  1  0  0  0
 14 15  2  0  0  0
 15 16  1  0  0  0
 15 46  1  0  0  0
 16 47  1  0  0  0
 17 18  1  0  0  0
 17 48  1  0  0  0
 18 23  2  0  0  0
 18 19  1  0  0  0
 19 20  2  0  0  0
 19 36  1  0  0  0
 20 21  1  0  0  0
 20 49  1  0  0  0
 21 22  2  0  0  0
 21 29  1  0  0  0
 22 23  1  0  0  0
 22 24  1  0  0  0
 23 50  1  0  0  0
 24 25  1  0  0  0
 25 26  2  0  0  0
 25 27  1  0  0  0
 26 70  1  0  0  0
 27 28  2  0  0  0
 27 51  1  0  0  0
 28 52  1  0  0  0
 28 53  1  0  0  0
 29 30  1  0  0  0
 29 31  1  0  0  0
 30 54  1  0  0  0
 30 55  1  0  0  0
 30 56  1  0  0  0
 31 32  1  0  0  0
 31 57  1  0  0  0
 31 58  1  0  0  0
 32 33  1  0  0  0
 32 59  1  0  0  0
 32 60  1  0  0  0
 33 34  1  0  0  0
 33 35  1  0  0  0
 34 61  1  0  0  0
 34 62  1  0  0  0
 34 63  1  0  0  0
 35 64  1  0  0  0
 35 65  1  0  0  0
 35 66  1  0  0  0
 36 37  1  0  0  0
 37 67  1  0  0  0
 37 68  1  0  0  0
 37 69  1  0  0  0
M  CHG  2  24  -1  26   1
M  END
> <s_m_source_file>
/Users/andrea/Development/mcce-charges/epik_inhibitors/output/Osimertinib/Osimertinib-input.mol2

> <i_m_source_file_index>
1

> <r_lp_tautomer_probability>
0.999999812000036

> <r_epik_Ionization_Penalty>
  4.8534

> <r_epik_Ionization_Penalty_Charging>
  0.0183

> <r_epik_Ionization_Penalty_Neutral>
  4.8351

> <r_epik_State_Penalty>
  6.7706

> <i_epik_Tot_Q>
0

$$$$
~{N}-[2-[2-(dimethylamino)ethyl-methyl-amino]-4-methoxy-5-[[4-(1-methylindol-3-yl)pyrimidin-2-yl]amino]phenyl]prop-2-enamide
                    3D
 Structure written by MMmdl.
 72 75  0  0  1  0            999 V2000
  -11.2397    8.2942    3.0775 C   0  0  0  0  0  0
  -10.3716    7.4871    3.9075 N   0  0  0  0  0  0
   -9.7322    6.3538    3.4818 C   0  0  0  0  0  0
   -9.0005    5.8589    4.5366 C   0  0  0  0  0  0
   -9.2027    6.7245    5.6479 C   0  0  0  0  0  0
   -8.7321    6.7433    6.9759 C   0  0  0  0  0  0
   -9.1424    7.7725    7.8310 C   0  0  0  0  0  0
  -10.0056    8.7705    7.3830 C   0  0  0  0  0  0
  -10.4853    8.7726    6.0700 C   0  0  0  0  0  0
  -10.0667    7.7375    5.2264 C   0  0  0  0  0  0
   -8.2053    4.6694    4.4284 C   0  0  0  0  0  0
   -8.0637    3.9524    5.5626 N   0  0  0  0  0  0
   -7.3151    2.8396    5.4416 C   0  0  0  0  0  0
   -6.7109    2.3878    4.3261 N   0  0  0  0  0  0
   -6.8941    3.1527    3.2299 C   0  0  0  0  0  0
   -7.6382    4.3147    3.2214 C   0  0  0  0  0  0
   -7.1454    2.0639    6.6092 N   0  0  0  0  0  0
   -7.6128    2.2136    7.9282 C   0  0  0  0  0  0
   -6.8701    1.7262    9.0036 C   0  0  0  0  0  0
   -7.3450    1.8804   10.3061 C   0  0  0  0  0  0
   -8.5626    2.5218   10.5331 C   0  0  0  0  0  0
   -9.3054    3.0091    9.4577 C   0  0  0  0  0  0
   -8.8304    2.8550    8.1552 C   0  0  0  0  0  0
  -10.5273    3.6565    9.6615 N   0  5  0  0  0  0
  -11.3860    4.1981    8.6974 C   0  0  0  0  0  0
  -11.2253    4.2064    7.4827 O   0  3  0  0  0  0
  -12.5967    4.8065    9.3216 C   0  0  0  0  0  0
  -13.5385    5.3771    8.5638 C   0  0  0  0  0  0
   -9.0240    2.6667   11.8606 N   0  3  1  0  0  0
   -9.8566    1.6454   12.4612 C   0  0  0  0  0  0
   -8.6577    3.8316   12.6392 C   0  0  0  0  0  0
   -7.3730    3.6110   13.4127 C   0  0  0  0  0  0
   -7.0029    4.7637   14.1884 N   0  3  0  0  0  0
   -6.3474    5.7829   13.3541 C   0  0  0  0  0  0
   -6.1152    4.3969   15.3029 C   0  0  0  0  0  0
   -5.6781    1.0964    8.8026 O   0  0  0  0  0  0
   -4.5083    1.9117    8.7953 C   0  0  0  0  0  0
  -11.2978    7.8541    2.0711 H   0  0  0  0  0  0
  -10.8358    9.3150    3.0085 H   0  0  0  0  0  0
  -12.2454    8.3270    3.5220 H   0  0  0  0  0  0
   -9.8536    5.9989    2.4662 H   0  0  0  0  0  0
   -8.0590    5.9728    7.3411 H   0  0  0  0  0  0
   -8.7828    7.7922    8.8564 H   0  0  0  0  0  0
  -10.3114    9.5603    8.0644 H   0  0  0  0  0  0
  -11.1571    9.5522    5.7266 H   0  0  0  0  0  0
   -6.4097    2.7934    2.3281 H   0  0  0  0  0  0
   -7.7593    4.8995    2.3179 H   0  0  0  0  0  0
   -6.5444    1.1432    6.5753 H   0  0  0  0  0  0
   -6.7620    1.4983   11.1409 H   0  0  0  0  0  0
   -9.4089    3.2354    7.3157 H   0  0  0  0  0  0
  -12.7106    4.7827   10.4154 H   0  0  0  0  0  0
  -14.4274    5.8229    9.0340 H   0  0  0  0  0  0
  -13.4246    5.4009    7.4700 H   0  0  0  0  0  0
  -10.1108    1.9382   13.4906 H   0  0  0  0  0  0
   -9.3118    0.6899   12.4757 H   0  0  0  0  0  0
  -10.7796    1.5324   11.8735 H   0  0  0  0  0  0
   -8.5131    4.6908   11.9677 H   0  0  0  0  0  0
   -9.4587    4.0589   13.3581 H   0  0  0  0  0  0
   -7.5004    2.7621   14.1006 H   0  0  0  0  0  0
   -6.5547    3.3941   12.7103 H   0  0  0  0  0  0
   -6.0781    6.6487   13.9769 H   0  0  0  0  0  0
   -7.0359    6.1035   12.5583 H   0  0  0  0  0  0
   -5.4382    5.3584   12.9033 H   0  0  0  0  0  0
   -5.8520    5.2993   15.8742 H   0  0  0  0  0  0
   -5.1997    3.9345   14.9055 H   0  0  0  0  0  0
   -6.6303    3.6827   15.9622 H   0  0  0  0  0  0
   -3.6231    1.2814    8.6245 H   0  0  0  0  0  0
   -4.4123    2.4239    9.7640 H   0  0  0  0  0  0
   -4.5871    2.6588    7.9917 H   0  0  0  0  0  0
   -7.9460    5.1659   14.5868 H   0  0  0  0  0  0
  -11.9817    4.6680    6.8310 H   0  0  0  0  0  0
   -9.9228    3.1826   11.4919 H   0  0  0  0  0  0
  1  2  1  0  0  0
  1 38  1  0  0  0
  1 39  1  0  0  0
  1 40  1  0  0  0
  2 10  1  0  0  0
  2  3  1  0  0  0
  3  4  2  0  0  0
  3 41  1  0  0  0
  4  5  1  0  0  0
  4 11  1  0  0  0
  5 10  2  0  0  0
  5  6  1  0  0  0
  6  7  2  0  0  0
  6 42  1  0  0  0
  7  8  1  0  0  0
  7 43  1  0  0  0
  8  9  2  0  0  0
  8 44  1  0  0  0
  9 10  1  0  0  0
  9 45  1  0  0  0
 11 16  2  0  0  0
 11 12  1  0  0  0
 12 13  2  0  0  0
 13 14  1  0  0  0
 13 17  1  0  0  0
 14 15  2  0  0  0
 15 16  1  0  0  0
 15 46  1  0  0  0
 16 47  1  0  0  0
 17 18  1  0  0  0
 17 48  1  0  0  0
 18 23  2  0  0  0
 18 19  1  0  0  0
 19 20  2  0  0  0
 19 36  1  0  0  0
 20 21  1  0  0  0
 20 49  1  0  0  0
 21 22  2  0  0  0
 21 29  1  0  0  0
 22 23  1  0  0  0
 22 24  1  0  0  0
 23 50  1  0  0  0
 24 25  1  0  0  0
 25 26  2  0  0  0
 25 27  1  0  0  0
 26 71  1  0  0  0
 27 28  2  0  0  0
 27 51  1  0  0  0
 28 52  1  0  0  0
 28 53  1  0  0  0
 29 30  1  0  0  0
 29 31  1  0  0  0
 29 72  1  0  0  0
 30 54  1  0  0  0
 30 55  1  0  0  0
 30 56  1  0  0  0
 31 32  1  0  0  0
 31 57  1  0  0  0
 31 58  1  0  0  0
 32 33  1  0  0  0
 32 59  1  0  0  0
 32 60  1  0  0  0
 33 34  1  0  0  0
 33 35  1  0  0  0
 33 70  1  0  0  0
 34 61  1  0  0  0
 34 62  1  0  0  0
 34 63  1  0  0  0
 35 64  1  0  0  0
 35 65  1  0  0  0
 35 66  1  0  0  0
 36 37  1  0  0  0
 37 67  1  0  0  0
 37 68  1  0  0  0
 37 69  1  0  0  0
M  CHG  4  24  -1  26   1  29   1  33   1
M  END
> <s_m_source_file>
/Users/andrea/Development/mcce-charges/epik_inhibitors/output/Osimertinib/Osimertinib-input.mol2

> <i_m_source_file_index>
1

> <r_epik_Ionization_Penalty>
  3.5813

> <r_epik_Ionization_Penalty_Charging>
  3.5812

> <r_epik_Ionization_Penalty_Neutral>
  0.0000

> <r_epik_State_Penalty>
  7.5982

> <i_epik_Tot_Q>
2

$$$$
~{N}-[2-[2-(dimethylamino)ethyl-methyl-amino]-4-methoxy-5-[[4-(1-methylindol-3-yl)pyrimidin-2-yl]amino]phenyl]prop-2-enamide
                    3D
 Structure written by MMmdl.
 72 75  0  0  1  0            999 V2000
  -11.2485    8.2871    3.0758 C   0  0  0  0  0  0
  -10.3788    7.4818    3.9058 N   0  0  0  0  0  0
   -9.7382    6.3490    3.4806 C   0  0  0  0  0  0
   -9.0051    5.8559    4.5353 C   0  0  0  0  0  0
   -9.2076    6.7222    5.6460 C   0  0  0  0  0  0
   -8.7361    6.7427    6.9737 C   0  0  0  0  0  0
   -9.1471    7.7721    7.8282 C   0  0  0  0  0  0
  -10.0119    8.7686    7.3800 C   0  0  0  0  0  0
  -10.4926    8.7690    6.0673 C   0  0  0  0  0  0
  -10.0732    7.7337    5.2243 C   0  0  0  0  0  0
   -8.2084    4.6674    4.4275 C   0  0  0  0  0  0
   -8.0653    3.9514    5.5622 N   0  0  0  0  0  0
   -7.3151    2.8396    5.4416 C   0  0  0  0  0  0
   -6.7095    2.3887    4.3265 N   0  0  0  0  0  0
   -6.8928    3.1535    3.2303 C   0  0  0  0  0  0
   -7.6410    4.3129    3.2206 C   0  0  0  0  0  0
   -7.1454    2.0639    6.6092 N   0  0  0  0  0  0
   -7.6128    2.2136    7.9282 C   0  0  0  0  0  0
   -6.8701    1.7262    9.0036 C   0  0  0  0  0  0
   -7.3450    1.8804   10.3061 C   0  0  0  0  0  0
   -8.5626    2.5218   10.5331 C   0  0  0  0  0  0
   -9.3054    3.0091    9.4577 C   0  0  0  0  0  0
   -8.8304    2.8550    8.1552 C   0  0  0  0  0  0
  -10.5273    3.6565    9.6615 N   0  0  0  0  0  0
  -11.3860    4.1981    8.6974 C   0  0  0  0  0  0
  -11.2253    4.2064    7.4827 O   0  0  0  0  0  0
  -12.5967    4.8065    9.3216 C   0  0  0  0  0  0
  -13.5385    5.3771    8.5638 C   0  0  0  0  0  0
   -9.0240    2.6667   11.8606 N   0  3  1  0  0  0
   -9.8566    1.6454   12.4612 C   0  0  0  0  0  0
   -8.6577    3.8316   12.6392 C   0  0  0  0  0  0
   -7.3730    3.6110   13.4127 C   0  0  0  0  0  0
   -7.0029    4.7637   14.1884 N   0  3  0  0  0  0
   -6.3474    5.7829   13.3541 C   0  0  0  0  0  0
   -6.1152    4.3969   15.3029 C   0  0  0  0  0  0
   -5.6781    1.0964    8.8026 O   0  0  0  0  0  0
   -4.5083    1.9117    8.7953 C   0  0  0  0  0  0
  -11.3068    7.8461    2.0698 H   0  0  0  0  0  0
  -10.8460    9.3084    3.0057 H   0  0  0  0  0  0
  -12.2539    8.3190    3.5210 H   0  0  0  0  0  0
   -9.7279    5.8755    2.5999 H   0  0  0  0  0  0
   -8.1153    6.0334    7.3077 H   0  0  0  0  0  0
   -8.8199    7.7984    8.7728 H   0  0  0  0  0  0
  -10.2881    9.4911    8.0138 H   0  0  0  0  0  0
  -11.1125    9.4918    5.7621 H   0  0  0  0  0  0
   -6.4493    2.8377    2.3915 H   0  0  0  0  0  0
   -7.7425    4.8355    2.3741 H   0  0  0  0  0  0
   -6.7620    1.4983   11.1409 H   0  0  0  0  0  0
   -9.4089    3.2354    7.3157 H   0  0  0  0  0  0
  -12.7106    4.7827   10.4154 H   0  0  0  0  0  0
  -14.4274    5.8229    9.0340 H   0  0  0  0  0  0
  -13.4246    5.4009    7.4700 H   0  0  0  0  0  0
  -10.1108    1.9382   13.4906 H   0  0  0  0  0  0
   -9.3118    0.6899   12.4757 H   0  0  0  0  0  0
  -10.7796    1.5324   11.8735 H   0  0  0  0  0  0
   -8.5131    4.6908   11.9677 H   0  0  0  0  0  0
   -9.4587    4.0589   13.3581 H   0  0  0  0  0  0
   -7.5004    2.7621   14.1006 H   0  0  0  0  0  0
   -6.5547    3.3941   12.7103 H   0  0  0  0  0  0
   -6.0781    6.6487   13.9769 H   0  0  0  0  0  0
   -7.0359    6.1035   12.5583 H   0  0  0  0  0  0
   -5.4382    5.3584   12.9033 H   0  0  0  0  0  0
   -5.8520    5.2993   15.8742 H   0  0  0  0  0  0
   -5.1997    3.9345   14.9055 H   0  0  0  0  0  0
   -6.6303    3.6827   15.9622 H   0  0  0  0  0  0
   -3.6231    1.2814    8.6245 H   0  0  0  0  0  0
   -4.4123    2.4239    9.7640 H   0  0  0  0  0  0
   -4.5871    2.6588    7.9917 H   0  0  0  0  0  0
   -7.9460    5.1659   14.5868 H   0  0  0  0  0  0
  -11.9817    4.6680    6.8310 H   0  0  0  0  0  0
   -6.5444    1.1432    6.5753 H   0  0  0  0  0  0
   -9.9228    3.1826   11.4919 H   0  0  0  0  0  0
  1  2  1  0  0  0
  1 38  1  0  0  0
  1 39  1  0  0  0
  1 40  1  0  0  0
  2 10  1  0  0  0
  2  3  1  0  0  0
  3  4  2  0  0  0
  3 41  1  0  0  0
  4  5  1  0  0  0
  4 11  1  0  0  0
  5 10  2  0  0  0
  5  6  1  0  0  0
  6  7  2  0  0  0
  6 42  1  0  0  0
  7  8  1  0  0  0
  7 43  1  0  0  0
  8  9  2  0  0  0
  8 44  1  0  0  0
  9 10  1  0  0  0
  9 45  1  0  0  0
 11 16  2  0  0  0
 11 12  1  0  0  0
 12 13  2  0  0  0
 13 17  1  0  0  0
 13 14  1  0  0  0
 14 15  2  0  0  0
 15 46  1  0  0  0
 15 16  1  0  0  0
 16 47  1  0  0  0
 17 18  1  0  0  0
 17 71  1  0  0  0
 18 23  2  0  0  0
 18 19  1  0  0  0
 19 20  2  0  0  0
 19 36  1  0  0  0
 20 21  1  0  0  0
 20 48  1  0  0  0
 21 22  2  0  0  0
 21 29  1  0  0  0
 22 23  1  0  0  0
 22 24  1  0  0  0
 23 49  1  0  0  0
 24 25  2  0  0  0
 25 26  1  0  0  0
 25 27  1  0  0  0
 26 70  1  0  0  0
 27 28  2  0  0  0
 27 50  1  0  0  0
 28 51  1  0  0  0
 28 52  1  0  0  0
 29 30  1  0  0  0
 29 31  1  0  0  0
 29 72  1  0  0  0
 30 53  1  0  0  0
 30 54  1  0  0  0
 30 55  1  0  0  0
 31 32  1  0  0  0
 31 56  1  0  0  0
 31 57  1  0  0  0
 32 33  1  0  0  0
 32 58  1  0  0  0
 32 59  1  0  0  0
 33 34  1  0  0  0
 33 35  1  0  0  0
 33 69  1  0  0  0
 34 60  1  0  0  0
 34 61  1  0  0  0
 34 62  1  0  0  0
 35 63  1  0  0  0
 35 64  1  0  0  0
 35 65  1  0  0  0
 36 37  1  0  0  0
 37 66  1  0  0  0
 37 67  1  0  0  0
 37 68  1  0  0  0
M  CHG  2  29   1  33   1
M  END
> <s_m_source_file>
/Users/andrea/Development/mcce-charges/epik_inhibitors/output/Osimertinib/Osimertinib-input.mol2

> <i_m_source_file_index>
1

> <r_epik_Ionization_Penalty>
 12.7019

> <r_epik_Ionization_Penalty_Charging>
  7.6267

> <r_epik_Ionization_Penalty_Neutral>
  5.0752

> <r_epik_State_Penalty>
  7.9048

> <i_epik_Tot_Q>
2

> <s_epik_Chemistry_Notes>
This compound has an imine and may undergo hydrolysis.

$$$$
~{N}-[2-[2-(dimethylamino)ethyl-methyl-amino]-4-methoxy-5-[[4-(1-methylindol-3-yl)pyrimidin-2-yl]amino]phenyl]prop-2-enamide
                    3D
 Structure written by MMmdl.
 72 75  0  0  1  0            999 V2000
  -11.2397    8.2942    3.0775 C   0  0  0  0  0  0
  -10.3716    7.4871    3.9075 N   0  0  0  0  0  0
   -9.7322    6.3538    3.4818 C   0  0  0  0  0  0
   -9.0005    5.8589    4.5366 C   0  0  0  0  0  0
   -9.2027    6.7245    5.6479 C   0  0  0  0  0  0
   -8.7321    6.7433    6.9759 C   0  0  0  0  0  0
   -9.1424    7.7725    7.8310 C   0  0  0  0  0  0
  -10.0056    8.7705    7.3830 C   0  0  0  0  0  0
  -10.4853    8.7726    6.0700 C   0  0  0  0  0  0
  -10.0667    7.7375    5.2264 C   0  0  0  0  0  0
   -8.2053    4.6694    4.4284 C   0  0  0  0  0  0
   -8.0637    3.9524    5.5626 N   0  0  0  0  0  0
   -7.3151    2.8396    5.4416 C   0  0  0  0  0  0
   -6.7109    2.3878    4.3261 N   0  0  0  0  0  0
   -6.8941    3.1527    3.2299 C   0  0  0  0  0  0
   -7.6382    4.3147    3.2214 C   0  0  0  0  0  0
   -7.1454    2.0639    6.6092 N   0  0  0  0  0  0
   -7.6128    2.2136    7.9282 C   0  0  0  0  0  0
   -6.8701    1.7262    9.0036 C   0  0  0  0  0  0
   -7.3450    1.8804   10.3061 C   0  0  0  0  0  0
   -8.5626    2.5218   10.5331 C   0  0  0  0  0  0
   -9.3054    3.0091    9.4577 C   0  0  0  0  0  0
   -8.8304    2.8550    8.1552 C   0  0  0  0  0  0
  -10.5273    3.6565    9.6615 N   0  0  0  0  0  0
  -11.3860    4.1981    8.6974 C   0  0  0  0  0  0
  -11.2253    4.2064    7.4827 O   0  3  0  0  0  0
  -12.5967    4.8065    9.3216 C   0  0  0  0  0  0
  -13.5385    5.3771    8.5638 C   0  0  0  0  0  0
   -9.0240    2.6667   11.8606 N   0  3  1  0  0  0
   -9.8566    1.6454   12.4612 C   0  0  0  0  0  0
   -8.6577    3.8316   12.6392 C   0  0  0  0  0  0
   -7.3730    3.6110   13.4127 C   0  0  0  0  0  0
   -7.0029    4.7637   14.1884 N   0  0  0  0  0  0
   -6.3474    5.7829   13.3541 C   0  0  0  0  0  0
   -6.1152    4.3969   15.3029 C   0  0  0  0  0  0
   -5.6781    1.0964    8.8026 O   0  0  0  0  0  0
   -4.5083    1.9117    8.7953 C   0  0  0  0  0  0
  -11.2978    7.8541    2.0711 H   0  0  0  0  0  0
  -10.8358    9.3150    3.0085 H   0  0  0  0  0  0
  -12.2454    8.3270    3.5220 H   0  0  0  0  0  0
   -9.8536    5.9989    2.4662 H   0  0  0  0  0  0
   -8.0590    5.9728    7.3411 H   0  0  0  0  0  0
   -8.7828    7.7922    8.8564 H   0  0  0  0  0  0
  -10.3114    9.5603    8.0644 H   0  0  0  0  0  0
  -11.1571    9.5522    5.7266 H   0  0  0  0  0  0
   -6.4097    2.7934    2.3281 H   0  0  0  0  0  0
   -7.7593    4.8995    2.3179 H   0  0  0  0  0  0
   -6.5444    1.1432    6.5753 H   0  0  0  0  0  0
   -6.7620    1.4983   11.1409 H   0  0  0  0  0  0
   -9.4089    3.2354    7.3157 H   0  0  0  0  0  0
  -12.7106    4.7827   10.4154 H   0  0  0  0  0  0
  -14.4274    5.8229    9.0340 H   0  0  0  0  0  0
  -13.4246    5.4009    7.4700 H   0  0  0  0  0  0
  -10.1108    1.9382   13.4906 H   0  0  0  0  0  0
   -9.3118    0.6899   12.4757 H   0  0  0  0  0  0
  -10.7796    1.5324   11.8735 H   0  0  0  0  0  0
   -8.5131    4.6908   11.9677 H   0  0  0  0  0  0
   -9.4587    4.0589   13.3581 H   0  0  0  0  0  0
   -7.5004    2.7621   14.1006 H   0  0  0  0  0  0
   -6.5547    3.3941   12.7103 H   0  0  0  0  0  0
   -6.0781    6.6487   13.9769 H   0  0  0  0  0  0
   -7.0359    6.1035   12.5583 H   0  0  0  0  0  0
   -5.4382    5.3584   12.9033 H   0  0  0  0  0  0
   -5.8520    5.2993   15.8742 H   0  0  0  0  0  0
   -5.1997    3.9345   14.9055 H   0  0  0  0  0  0
   -6.6303    3.6827   15.9622 H   0  0  0  0  0  0
   -3.6231    1.2814    8.6245 H   0  0  0  0  0  0
   -4.4123    2.4239    9.7640 H   0  0  0  0  0  0
   -4.5871    2.6588    7.9917 H   0  0  0  0  0  0
  -11.9817    4.6680    6.8310 H   0  0  0  0  0  0
   -9.9228    3.1826   11.4919 H   0  0  0  0  0  0
  -10.9166    3.7880   10.6819 H   0  0  0  0  0  0
  1  2  1  0  0  0
  1 38  1  0  0  0
  1 39  1  0  0  0
  1 40  1  0  0  0
  2 10  1  0  0  0
  2  3  1  0  0  0
  3  4  2  0  0  0
  3 41  1  0  0  0
  4  5  1  0  0  0
  4 11  1  0  0  0
  5 10  2  0  0  0
  5  6  1  0  0  0
  6  7  2  0  0  0
  6 42  1  0  0  0
  7  8  1  0  0  0
  7 43  1  0  0  0
  8  9  2  0  0  0
  8 44  1  0  0  0
  9 10  1  0  0  0
  9 45  1  0  0  0
 11 16  2  0  0  0
 11 12  1  0  0  0
 12 13  2  0  0  0
 13 14  1  0  0  0
 13 17  1  0  0  0
 14 15  2  0  0  0
 15 16  1  0  0  0
 15 46  1  0  0  0
 16 47  1  0  0  0
 17 18  1  0  0  0
 17 48  1  0  0  0
 18 23  2  0  0  0
 18 19  1  0  0  0
 19 20  2  0  0  0
 19 36  1  0  0  0
 20 21  1  0  0  0
 20 49  1  0  0  0
 21 22  2  0  0  0
 21 29  1  0  0  0
 22 23  1  0  0  0
 22 24  1  0  0  0
 23 50  1  0  0  0
 24 25  1  0  0  0
 24 72  1  0  0  0
 25 26  2  0  0  0
 25 27  1  0  0  0
 26 70  1  0  0  0
 27 28  2  0  0  0
 27 51  1  0  0  0
 28 52  1  0  0  0
 28 53  1  0  0  0
 29 30  1  0  0  0
 29 31  1  0  0  0
 29 71  1  0  0  0
 30 54  1  0  0  0
 30 55  1  0  0  0
 30 56  1  0  0  0
 31 32  1  0  0  0
 31 57  1  0  0  0
 31 58  1  0  0  0
 32 33  1  0  0  0
 32 59  1  0  0  0
 32 60  1  0  0  0
 33 34  1  0  0  0
 33 35  1  0  0  0
 34 61  1  0  0  0
 34 62  1  0  0  0
 34 63  1  0  0  0
 35 64  1  0  0  0
 35 65  1  0  0  0
 35 66  1  0  0  0
 36 37  1  0  0  0
 37 67  1  0  0  0
 37 68  1  0  0  0
 37 69  1  0  0  0
M  CHG  2  26   1  29   1
M  END
> <s_m_source_file>
/Users/andrea/Development/mcce-charges/epik_inhibitors/output/Osimertinib/Osimertinib-input.mol2

> <i_m_source_file_index>
1

> <r_epik_Ionization_Penalty>
  8.0503

> <r_epik_Ionization_Penalty_Charging>
  5.9696

> <r_epik_Ionization_Penalty_Neutral>
  2.0808

> <r_epik_State_Penalty>
  8.0257

> <i_epik_Tot_Q>
2

$$$$
~{N}-[2-[2-(dimethylamino)ethyl-methyl-amino]-4-methoxy-5-[[4-(1-methylindol-3-yl)pyrimidin-2-yl]amino]phenyl]prop-2-enamide
                    3D
 Structure written by MMmdl.
 71 74  0  0  1  0            999 V2000
  -11.2390    8.2949    3.0778 C   0  0  0  0  0  0
  -10.3709    7.4876    3.9078 N   0  0  0  0  0  0
   -9.7318    6.3542    3.4820 C   0  0  0  0  0  0
   -9.0000    5.8592    4.5367 C   0  0  0  0  0  0
   -9.2019    6.7249    5.6480 C   0  0  0  0  0  0
   -8.7312    6.7436    6.9760 C   0  0  0  0  0  0
   -9.1412    7.7729    7.8311 C   0  0  0  0  0  0
  -10.0042    8.7711    7.3832 C   0  0  0  0  0  0
  -10.4841    8.7732    6.0702 C   0  0  0  0  0  0
  -10.0658    7.7380    5.2266 C   0  0  0  0  0  0
   -8.2051    4.6695    4.4285 C   0  0  0  0  0  0
   -8.0637    3.9524    5.5626 N   0  3  0  0  0  0
   -7.3151    2.8396    5.4416 C   0  0  0  0  0  0
   -6.7095    2.3887    4.3265 N   0  5  0  0  0  0
   -6.8928    3.1535    3.2303 C   0  0  0  0  0  0
   -7.6374    4.3152    3.2216 C   0  0  0  0  0  0
   -7.1454    2.0639    6.6092 N   0  0  0  0  0  0
   -7.6128    2.2136    7.9282 C   0  0  0  0  0  0
   -6.8701    1.7262    9.0036 C   0  0  0  0  0  0
   -7.3450    1.8804   10.3061 C   0  0  0  0  0  0
   -8.5626    2.5218   10.5331 C   0  0  0  0  0  0
   -9.3054    3.0091    9.4577 C   0  0  0  0  0  0
   -8.8304    2.8550    8.1552 C   0  0  0  0  0  0
  -10.5273    3.6565    9.6615 N   0  0  0  0  0  0
  -11.3860    4.1981    8.6974 C   0  0  0  0  0  0
  -11.2253    4.2064    7.4827 O   0  0  0  0  0  0
  -12.5967    4.8065    9.3216 C   0  0  0  0  0  0
  -13.5385    5.3771    8.5638 C   0  0  0  0  0  0
   -9.0240    2.6667   11.8606 N   0  0  0  0  0  0
   -9.8566    1.6454   12.4612 C   0  0  0  0  0  0
   -8.6577    3.8316   12.6392 C   0  0  0  0  0  0
   -7.3730    3.6110   13.4127 C   0  0  0  0  0  0
   -7.0029    4.7637   14.1884 N   0  3  0  0  0  0
   -6.3474    5.7829   13.3541 C   0  0  0  0  0  0
   -6.1152    4.3969   15.3029 C   0  0  0  0  0  0
   -5.6781    1.0964    8.8026 O   0  0  0  0  0  0
   -4.5083    1.9117    8.7953 C   0  0  0  0  0  0
  -11.2973    7.8547    2.0714 H   0  0  0  0  0  0
  -10.8349    9.3156    3.0088 H   0  0  0  0  0  0
  -12.2446    8.3279    3.5225 H   0  0  0  0  0  0
   -9.7217    5.8814    2.6009 H   0  0  0  0  0  0
   -8.1117    6.0331    7.3098 H   0  0  0  0  0  0
   -8.8145    7.7979    8.7759 H   0  0  0  0  0  0
  -10.2797    9.4935    8.0174 H   0  0  0  0  0  0
  -11.1028    9.4972    5.7652 H   0  0  0  0  0  0
   -6.4521    2.8359    2.3907 H   0  0  0  0  0  0
   -7.7364    4.8393    2.3758 H   0  0  0  0  0  0
   -6.7620    1.4983   11.1409 H   0  0  0  0  0  0
   -9.4089    3.2354    7.3157 H   0  0  0  0  0  0
  -10.9166    3.7880   10.6819 H   0  0  0  0  0  0
  -12.7106    4.7827   10.4154 H   0  0  0  0  0  0
  -14.4274    5.8229    9.0340 H   0  0  0  0  0  0
  -13.4246    5.4009    7.4700 H   0  0  0  0  0  0
  -10.1108    1.9382   13.4906 H   0  0  0  0  0  0
   -9.3118    0.6899   12.4757 H   0  0  0  0  0  0
  -10.7796    1.5324   11.8735 H   0  0  0  0  0  0
   -8.5131    4.6908   11.9677 H   0  0  0  0  0  0
   -9.4587    4.0589   13.3581 H   0  0  0  0  0  0
   -7.5004    2.7621   14.1006 H   0  0  0  0  0  0
   -6.5547    3.3941   12.7103 H   0  0  0  0  0  0
   -6.0781    6.6487   13.9769 H   0  0  0  0  0  0
   -7.0359    6.1035   12.5583 H   0  0  0  0  0  0
   -5.4382    5.3584   12.9033 H   0  0  0  0  0  0
   -5.8520    5.2993   15.8742 H   0  0  0  0  0  0
   -5.1997    3.9345   14.9055 H   0  0  0  0  0  0
   -6.6303    3.6827   15.9622 H   0  0  0  0  0  0
   -3.6231    1.2814    8.6245 H   0  0  0  0  0  0
   -4.4123    2.4239    9.7640 H   0  0  0  0  0  0
   -4.5871    2.6588    7.9917 H   0  0  0  0  0  0
   -7.9460    5.1659   14.5868 H   0  0  0  0  0  0
   -8.5058    4.2148    6.5351 H   0  0  0  0  0  0
  1  2  1  0  0  0
  1 38  1  0  0  0
  1 39  1  0  0  0
  1 40  1  0  0  0
  2 10  1  0  0  0
  2  3  1  0  0  0
  3  4  2  0  0  0
  3 41  1  0  0  0
  4  5  1  0  0  0
  4 11  1  0  0  0
  5 10  2  0  0  0
  5  6  1  0  0  0
  6  7  2  0  0  0
  6 42  1  0  0  0
  7  8  1  0  0  0
  7 43  1  0  0  0
  8  9  2  0  0  0
  8 44  1  0  0  0
  9 10  1  0  0  0
  9 45  1  0  0  0
 11 12  2  0  0  0
 11 16  1  0  0  0
 12 13  1  0  0  0
 12 71  1  0  0  0
 13 17  2  0  0  0
 13 14  1  0  0  0
 14 15  1  0  0  0
 15 16  2  0  0  0
 15 46  1  0  0  0
 16 47  1  0  0  0
 17 18  1  0  0  0
 18 23  2  0  0  0
 18 19  1  0  0  0
 19 20  2  0  0  0
 19 36  1  0  0  0
 20 21  1  0  0  0
 20 48  1  0  0  0
 21 22  2  0  0  0
 21 29  1  0  0  0
 22 23  1  0  0  0
 22 24  1  0  0  0
 23 49  1  0  0  0
 24 25  1  0  0  0
 24 50  1  0  0  0
 25 26  2  0  0  0
 25 27  1  0  0  0
 27 28  2  0  0  0
 27 51  1  0  0  0
 28 52  1  0  0  0
 28 53  1  0  0  0
 29 30  1  0  0  0
 29 31  1  0  0  0
 30 54  1  0  0  0
 30 55  1  0  0  0
 30 56  1  0  0  0
 31 32  1  0  0  0
 31 57  1  0  0  0
 31 58  1  0  0  0
 32 33  1  0  0  0
 32 59  1  0  0  0
 32 60  1  0  0  0
 33 34  1  0  0  0
 33 35  1  0  0  0
 33 70  1  0  0  0
 34 61  1  0  0  0
 34 62  1  0  0  0
 34 63  1  0  0  0
 35 64  1  0  0  0
 35 65  1  0  0  0
 35 66  1  0  0  0
 36 37  1  0  0  0
 37 67  1  0  0  0
 37 68  1  0  0  0
 37 69  1  0  0  0
M  CHG  3  12   1  14  -1  33   1
M  END
> <s_m_source_file>
/Users/andrea/Development/mcce-charges/epik_inhibitors/output/Osimertinib/Osimertinib-input.mol2

> <i_m_source_file_index>
1

> <r_epik_Ionization_Penalty>
  3.4760

> <r_epik_Ionization_Penalty_Charging>
  1.8726

> <r_epik_Ionization_Penalty_Neutral>
  1.6034

> <r_epik_State_Penalty>
  9.5322

> <i_epik_Tot_Q>
1

> <s_epik_Chemistry_Notes>
This compound has an imine and may undergo hydrolysis.

$$$$
~{N}-[2-[2-(dimethylamino)ethyl-methyl-amino]-4-methoxy-5-[[4-(1-methylindol-3-yl)pyrimidin-2-yl]amino]phenyl]prop-2-enamide
                    3D
 Structure written by MMmdl.
 71 74  0  0  1  0            999 V2000
  -11.2390    8.2949    3.0778 C   0  0  0  0  0  0
  -10.3709    7.4876    3.9078 N   0  0  0  0  0  0
   -9.7318    6.3542    3.4820 C   0  0  0  0  0  0
   -9.0000    5.8592    4.5367 C   0  0  0  0  0  0
   -9.2019    6.7249    5.6480 C   0  0  0  0  0  0
   -8.7312    6.7436    6.9760 C   0  0  0  0  0  0
   -9.1412    7.7729    7.8311 C   0  0  0  0  0  0
  -10.0042    8.7711    7.3832 C   0  0  0  0  0  0
  -10.4841    8.7732    6.0702 C   0  0  0  0  0  0
  -10.0658    7.7380    5.2266 C   0  0  0  0  0  0
   -8.2051    4.6695    4.4285 C   0  0  0  0  0  0
   -8.0637    3.9524    5.5626 N   0  3  0  0  0  0
   -7.3151    2.8396    5.4416 C   0  0  0  0  0  0
   -6.7095    2.3887    4.3265 N   0  5  0  0  0  0
   -6.8928    3.1535    3.2303 C   0  0  0  0  0  0
   -7.6374    4.3152    3.2216 C   0  0  0  0  0  0
   -7.1454    2.0639    6.6092 N   0  0  0  0  0  0
   -6.4491    0.8679    6.8651 C   0  0  0  0  0  0
   -6.8922   -0.0140    7.8507 C   0  0  0  0  0  0
   -6.1925   -1.1957    8.0950 C   0  0  0  0  0  0
   -5.0497   -1.4954    7.3537 C   0  0  0  0  0  0
   -4.6064   -0.6135    6.3681 C   0  0  0  0  0  0
   -5.3063    0.5682    6.1238 C   0  0  0  0  0  0
   -3.4648   -0.8940    5.6119 N   0  0  0  0  0  0
   -2.8941   -0.1194    4.5949 C   0  0  0  0  0  0
   -3.2927    0.9597    4.1728 O   0  0  0  0  0  0
   -1.6746   -0.7678    4.0309 C   0  0  0  0  0  0
   -0.9860   -0.1811    3.0468 C   0  0  0  0  0  0
   -4.3569   -2.6980    7.6182 N   0  0  0  0  0  0
   -3.2941   -2.7289    8.6013 C   0  0  0  0  0  0
   -4.7117   -3.9156    6.9188 C   0  0  0  0  0  0
   -5.7764   -4.7005    7.6589 C   0  0  0  0  0  0
   -6.1339   -5.9111    6.9703 N   0  3  0  0  0  0
   -7.0708   -5.6437    5.8680 C   0  0  0  0  0  0
   -6.7260   -6.8954    7.8896 C   0  0  0  0  0  0
   -8.0066    0.2609    8.5860 O   0  0  0  0  0  0
   -9.2517   -0.2101    8.0751 C   0  0  0  0  0  0
  -11.2973    7.8547    2.0714 H   0  0  0  0  0  0
  -10.8349    9.3156    3.0088 H   0  0  0  0  0  0
  -12.2446    8.3279    3.5225 H   0  0  0  0  0  0
   -9.7217    5.8814    2.6009 H   0  0  0  0  0  0
   -8.1117    6.0331    7.3098 H   0  0  0  0  0  0
   -8.8145    7.7979    8.7759 H   0  0  0  0  0  0
  -10.2797    9.4935    8.0174 H   0  0  0  0  0  0
  -11.1028    9.4972    5.7652 H   0  0  0  0  0  0
   -6.4521    2.8359    2.3907 H   0  0  0  0  0  0
   -7.7364    4.8393    2.3758 H   0  0  0  0  0  0
   -6.5423   -1.8797    8.8648 H   0  0  0  0  0  0
   -4.9616    1.2565    5.3546 H   0  0  0  0  0  0
   -2.9013   -1.8217    5.7901 H   0  0  0  0  0  0
   -1.3435   -1.7371    4.4319 H   0  0  0  0  0  0
   -0.0881   -0.6677    2.6379 H   0  0  0  0  0  0
   -1.3171    0.7882    2.6458 H   0  0  0  0  0  0
   -2.8813   -3.7466    8.6632 H   0  0  0  0  0  0
   -3.6941   -2.4352    9.5830 H   0  0  0  0  0  0
   -2.4997   -2.0283    8.3046 H   0  0  0  0  0  0
   -5.0991   -3.6652    5.9202 H   0  0  0  0  0  0
   -3.8210   -4.5530    6.8173 H   0  0  0  0  0  0
   -5.4039   -4.9722    8.6576 H   0  0  0  0  0  0
   -6.6820   -4.0844    7.7604 H   0  0  0  0  0  0
   -7.3229   -6.5882    5.3638 H   0  0  0  0  0  0
   -6.6028   -4.9569    5.1473 H   0  0  0  0  0  0
   -7.9873   -5.1859    6.2687 H   0  0  0  0  0  0
   -6.9872   -7.8070    7.3320 H   0  0  0  0  0  0
   -7.6330   -6.4719    8.3456 H   0  0  0  0  0  0
   -6.0004   -7.1432    8.6783 H   0  0  0  0  0  0
  -10.0620    0.0781    8.7609 H   0  0  0  0  0  0
   -9.2200   -1.3059    7.9849 H   0  0  0  0  0  0
   -9.4336    0.2342    7.0854 H   0  0  0  0  0  0
   -5.1919   -6.3079    6.5638 H   0  0  0  0  0  0
   -8.5058    4.2148    6.5351 H   0  0  0  0  0  0
  1  2  1  0  0  0
  1 38  1  0  0  0
  1 39  1  0  0  0
  1 40  1  0  0  0
  2 10  1  0  0  0
  2  3  1  0  0  0
  3  4  2  0  0  0
  3 41  1  0  0  0
  4  5  1  0  0  0
  4 11  1  0  0  0
  5 10  2  0  0  0
  5  6  1  0  0  0
  6  7  2  0  0  0
  6 42  1  0  0  0
  7  8  1  0  0  0
  7 43  1  0  0  0
  8  9  2  0  0  0
  8 44  1  0  0  0
  9 10  1  0  0  0
  9 45  1  0  0  0
 11 12  2  0  0  0
 11 16  1  0  0  0
 12 13  1  0  0  0
 12 71  1  0  0  0
 13 17  2  0  0  0
 13 14  1  0  0  0
 14 15  1  0  0  0
 15 16  2  0  0  0
 15 46  1  0  0  0
 16 47  1  0  0  0
 17 18  1  0  0  0
 18 23  2  0  0  0
 18 19  1  0  0  0
 19 20  2  0  0  0
 19 36  1  0  0  0
 20 21  1  0  0  0
 20 48  1  0  0  0
 21 22  2  0  0  0
 21 29  1  0  0  0
 22 23  1  0  0  0
 22 24  1  0  0  0
 23 49  1  0  0  0
 24 25  1  0  0  0
 24 50  1  0  0  0
 25 26  2  0  0  0
 25 27  1  0  0  0
 27 28  2  0  0  0
 27 51  1  0  0  0
 28 52  1  0  0  0
 28 53  1  0  0  0
 29 30  1  0  0  0
 29 31  1  0  0  0
 30 54  1  0  0  0
 30 55  1  0  0  0
 30 56  1  0  0  0
 31 32  1  0  0  0
 31 57  1  0  0  0
 31 58  1  0  0  0
 32 33  1  0  0  0
 32 59  1  0  0  0
 32 60  1  0  0  0
 33 34  1  0  0  0
 33 35  1  0  0  0
 33 70  1  0  0  0
 34 61  1  0  0  0
 34 62  1  0  0  0
 34 63  1  0  0  0
 35 64  1  0  0  0
 35 65  1  0  0  0
 35 66  1  0  0  0
 36 37  1  0  0  0
 37 67  1  0  0  0
 37 68  1  0  0  0
 37 69  1  0  0  0
M  CHG  3  12   1  14  -1  33   1
M  END
> <s_m_source_file>
/Users/andrea/Development/mcce-charges/epik_inhibitors/output/Osimertinib/Osimertinib-input.mol2

> <i_m_source_file_index>
1

> <r_epik_Ionization_Penalty>
  3.4760

> <r_epik_Ionization_Penalty_Charging>
  1.8726

> <r_epik_Ionization_Penalty_Neutral>
  1.6034

> <r_epik_State_Penalty>
  9.5322

> <i_epik_Tot_Q>
1

> <s_epik_Chemistry_Notes>
This compound has an imine and may undergo hydrolysis.

$$$$
~{N}-[2-[2-(dimethylamino)ethyl-methyl-amino]-4-methoxy-5-[[4-(1-methylindol-3-yl)pyrimidin-2-yl]amino]phenyl]prop-2-enamide
                    3D
 Structure written by MMmdl.
 71 74  0  0  1  0            999 V2000
  -11.2390    8.2949    3.0778 C   0  0  0  0  0  0
  -10.3709    7.4876    3.9078 N   0  0  0  0  0  0
   -9.7318    6.3542    3.4820 C   0  0  0  0  0  0
   -9.0000    5.8592    4.5367 C   0  0  0  0  0  0
   -9.2019    6.7249    5.6480 C   0  0  0  0  0  0
   -8.7312    6.7436    6.9760 C   0  0  0  0  0  0
   -9.1412    7.7729    7.8311 C   0  0  0  0  0  0
  -10.0042    8.7711    7.3832 C   0  0  0  0  0  0
  -10.4841    8.7732    6.0702 C   0  0  0  0  0  0
  -10.0658    7.7380    5.2266 C   0  0  0  0  0  0
   -8.2051    4.6695    4.4285 C   0  0  0  0  0  0
   -8.0637    3.9524    5.5626 N   0  0  0  0  0  0
   -7.3151    2.8396    5.4416 C   0  0  0  0  0  0
   -6.7095    2.3887    4.3265 N   0  0  0  0  0  0
   -6.8928    3.1535    3.2303 C   0  0  0  0  0  0
   -7.6374    4.3152    3.2216 C   0  0  0  0  0  0
   -7.1454    2.0639    6.6092 N   0  0  0  0  0  0
   -7.6128    2.2136    7.9282 C   0  0  0  0  0  0
   -6.8701    1.7262    9.0036 C   0  0  0  0  0  0
   -7.3450    1.8804   10.3061 C   0  0  0  0  0  0
   -8.5626    2.5218   10.5331 C   0  0  0  0  0  0
   -9.3054    3.0091    9.4577 C   0  0  0  0  0  0
   -8.8304    2.8550    8.1552 C   0  0  0  0  0  0
  -10.5273    3.6565    9.6615 N   0  0  0  0  0  0
  -11.3860    4.1981    8.6974 C   0  0  0  0  0  0
  -11.2253    4.2064    7.4827 O   0  0  0  0  0  0
  -12.5967    4.8065    9.3216 C   0  0  0  0  0  0
  -13.5385    5.3771    8.5638 C   0  0  0  0  0  0
   -9.0240    2.6667   11.8606 N   0  0  0  0  0  0
   -9.8566    1.6454   12.4612 C   0  0  0  0  0  0
   -8.6577    3.8316   12.6392 C   0  0  0  0  0  0
   -7.3730    3.6110   13.4127 C   0  0  0  0  0  0
   -7.0029    4.7637   14.1884 N   0  3  0  0  0  0
   -6.3474    5.7829   13.3541 C   0  0  0  0  0  0
   -6.1152    4.3969   15.3029 C   0  0  0  0  0  0
   -5.6781    1.0964    8.8026 O   0  0  0  0  0  0
   -4.5083    1.9117    8.7953 C   0  0  0  0  0  0
  -11.2973    7.8547    2.0714 H   0  0  0  0  0  0
  -10.8349    9.3156    3.0088 H   0  0  0  0  0  0
  -12.2446    8.3279    3.5225 H   0  0  0  0  0  0
   -9.7217    5.8814    2.6009 H   0  0  0  0  0  0
   -8.1117    6.0331    7.3098 H   0  0  0  0  0  0
   -8.8145    7.7979    8.7759 H   0  0  0  0  0  0
  -10.2797    9.4935    8.0174 H   0  0  0  0  0  0
  -11.1028    9.4972    5.7652 H   0  0  0  0  0  0
   -6.4521    2.8359    2.3907 H   0  0  0  0  0  0
   -7.7364    4.8393    2.3758 H   0  0  0  0  0  0
   -6.7620    1.4983   11.1409 H   0  0  0  0  0  0
   -9.4089    3.2354    7.3157 H   0  0  0  0  0  0
  -10.9166    3.7880   10.6819 H   0  0  0  0  0  0
  -12.7106    4.7827   10.4154 H   0  0  0  0  0  0
  -14.4274    5.8229    9.0340 H   0  0  0  0  0  0
  -13.4246    5.4009    7.4700 H   0  0  0  0  0  0
  -10.1108    1.9382   13.4906 H   0  0  0  0  0  0
   -9.3118    0.6899   12.4757 H   0  0  0  0  0  0
  -10.7796    1.5324   11.8735 H   0  0  0  0  0  0
   -8.5131    4.6908   11.9677 H   0  0  0  0  0  0
   -9.4587    4.0589   13.3581 H   0  0  0  0  0  0
   -7.5004    2.7621   14.1006 H   0  0  0  0  0  0
   -6.5547    3.3941   12.7103 H   0  0  0  0  0  0
   -6.0781    6.6487   13.9769 H   0  0  0  0  0  0
   -7.0359    6.1035   12.5583 H   0  0  0  0  0  0
   -5.4382    5.3584   12.9033 H   0  0  0  0  0  0
   -5.8520    5.2993   15.8742 H   0  0  0  0  0  0
   -5.1997    3.9345   14.9055 H   0  0  0  0  0  0
   -6.6303    3.6827   15.9622 H   0  0  0  0  0  0
   -3.6231    1.2814    8.6245 H   0  0  0  0  0  0
   -4.4123    2.4239    9.7640 H   0  0  0  0  0  0
   -4.5871    2.6588    7.9917 H   0  0  0  0  0  0
   -7.9460    5.1659   14.5868 H   0  0  0  0  0  0
   -6.1022    1.4737    4.2635 H   0  0  0  0  0  0
  1  2  1  0  0  0
  1 38  1  0  0  0
  1 39  1  0  0  0
  1 40  1  0  0  0
  2 10  1  0  0  0
  2  3  1  0  0  0
  3  4  2  0  0  0
  3 41  1  0  0  0
  4  5  1  0  0  0
  4 11  1  0  0  0
  5 10  2  0  0  0
  5  6  1  0  0  0
  6  7  2  0  0  0
  6 42  1  0  0  0
  7  8  1  0  0  0
  7 43  1  0  0  0
  8  9  2  0  0  0
  8 44  1  0  0  0
  9 10  1  0  0  0
  9 45  1  0  0  0
 11 12  2  0  0  0
 11 16  1  0  0  0
 12 13  1  0  0  0
 13 17  2  0  0  0
 13 14  1  0  0  0
 14 15  1  0  0  0
 14 71  1  0  0  0
 15 16  2  0  0  0
 15 46  1  0  0  0
 16 47  1  0  0  0
 17 18  1  0  0  0
 18 23  2  0  0  0
 18 19  1  0  0  0
 19 20  2  0  0  0
 19 36  1  0  0  0
 20 21  1  0  0  0
 20 48  1  0  0  0
 21 22  2  0  0  0
 21 29  1  0  0  0
 22 23  1  0  0  0
 22 24  1  0  0  0
 23 49  1  0  0  0
 24 25  1  0  0  0
 24 50  1  0  0  0
 25 26  2  0  0  0
 25 27  1  0  0  0
 27 28  2  0  0  0
 27 51  1  0  0  0
 28 52  1  0  0  0
 28 53  1  0  0  0
 29 30  1  0  0  0
 29 31  1  0  0  0
 30 54  1  0  0  0
 30 55  1  0  0  0
 30 56  1  0  0  0
 31 32  1  0  0  0
 31 57  1  0  0  0
 31 58  1  0  0  0
 32 33  1  0  0  0
 32 59  1  0  0  0
 32 60  1  0  0  0
 33 34  1  0  0  0
 33 35  1  0  0  0
 33 70  1  0  0  0
 34 61  1  0  0  0
 34 62  1  0  0  0
 34 63  1  0  0  0
 35 64  1  0  0  0
 35 65  1  0  0  0
 35 66  1  0  0  0
 36 37  1  0  0  0
 37 67  1  0  0  0
 37 68  1  0  0  0
 37 69  1  0  0  0
M  CHG  1  33   1
M  END
> <s_m_source_file>
/Users/andrea/Development/mcce-charges/epik_inhibitors/output/Osimertinib/Osimertinib-input.mol2

> <i_m_source_file_index>
1

> <r_epik_Ionization_Penalty>
  8.3654

> <r_epik_Ionization_Penalty_Charging>
  8.3649

> <r_epik_Ionization_Penalty_Neutral>
  0.0004

> <r_epik_State_Penalty>
 10.6299

> <i_epik_Tot_Q>
1

$$$$
~{N}-[2-[2-(dimethylamino)ethyl-methyl-amino]-4-methoxy-5-[[4-(1-methylindol-3-yl)pyrimidin-2-yl]amino]phenyl]prop-2-enamide
                    3D
 Structure written by MMmdl.
 71 74  0  0  1  0            999 V2000
  -11.2390    8.2949    3.0778 C   0  0  0  0  0  0
  -10.3709    7.4876    3.9078 N   0  0  0  0  0  0
   -9.7318    6.3542    3.4820 C   0  0  0  0  0  0
   -9.0000    5.8592    4.5367 C   0  0  0  0  0  0
   -9.2019    6.7249    5.6480 C   0  0  0  0  0  0
   -8.7312    6.7436    6.9760 C   0  0  0  0  0  0
   -9.1412    7.7729    7.8311 C   0  0  0  0  0  0
  -10.0042    8.7711    7.3832 C   0  0  0  0  0  0
  -10.4841    8.7732    6.0702 C   0  0  0  0  0  0
  -10.0658    7.7380    5.2266 C   0  0  0  0  0  0
   -8.2051    4.6695    4.4285 C   0  0  0  0  0  0
   -8.0637    3.9524    5.5626 N   0  0  0  0  0  0
   -7.3151    2.8396    5.4416 C   0  0  0  0  0  0
   -6.7095    2.3887    4.3265 N   0  0  0  0  0  0
   -6.8928    3.1535    3.2303 C   0  0  0  0  0  0
   -7.6374    4.3152    3.2216 C   0  0  0  0  0  0
   -7.1454    2.0639    6.6092 N   0  0  0  0  0  0
   -6.4491    0.8679    6.8651 C   0  0  0  0  0  0
   -6.8922   -0.0140    7.8507 C   0  0  0  0  0  0
   -6.1925   -1.1957    8.0950 C   0  0  0  0  0  0
   -5.0497   -1.4954    7.3537 C   0  0  0  0  0  0
   -4.6064   -0.6135    6.3681 C   0  0  0  0  0  0
   -5.3063    0.5682    6.1238 C   0  0  0  0  0  0
   -3.4648   -0.8940    5.6119 N   0  0  0  0  0  0
   -2.8941   -0.1194    4.5949 C   0  0  0  0  0  0
   -3.2927    0.9597    4.1728 O   0  0  0  0  0  0
   -1.6746   -0.7678    4.0309 C   0  0  0  0  0  0
   -0.9860   -0.1811    3.0468 C   0  0  0  0  0  0
   -4.3569   -2.6980    7.6182 N   0  0  0  0  0  0
   -3.2941   -2.7289    8.6013 C   0  0  0  0  0  0
   -4.7117   -3.9156    6.9188 C   0  0  0  0  0  0
   -5.7764   -4.7005    7.6589 C   0  0  0  0  0  0
   -6.1339   -5.9111    6.9703 N   0  3  0  0  0  0
   -7.0708   -5.6437    5.8680 C   0  0  0  0  0  0
   -6.7260   -6.8954    7.8896 C   0  0  0  0  0  0
   -8.0066    0.2609    8.5860 O   0  0  0  0  0  0
   -9.2517   -0.2101    8.0751 C   0  0  0  0  0  0
  -11.2973    7.8547    2.0714 H   0  0  0  0  0  0
  -10.8349    9.3156    3.0088 H   0  0  0  0  0  0
  -12.2446    8.3279    3.5225 H   0  0  0  0  0  0
   -9.7217    5.8814    2.6009 H   0  0  0  0  0  0
   -8.1117    6.0331    7.3098 H   0  0  0  0  0  0
   -8.8145    7.7979    8.7759 H   0  0  0  0  0  0
  -10.2797    9.4935    8.0174 H   0  0  0  0  0  0
  -11.1028    9.4972    5.7652 H   0  0  0  0  0  0
   -6.4521    2.8359    2.3907 H   0  0  0  0  0  0
   -7.7364    4.8393    2.3758 H   0  0  0  0  0  0
   -6.5423   -1.8797    8.8648 H   0  0  0  0  0  0
   -4.9616    1.2565    5.3546 H   0  0  0  0  0  0
   -2.9013   -1.8217    5.7901 H   0  0  0  0  0  0
   -1.3435   -1.7371    4.4319 H   0  0  0  0  0  0
   -0.0881   -0.6677    2.6379 H   0  0  0  0  0  0
   -1.3171    0.7882    2.6458 H   0  0  0  0  0  0
   -2.8813   -3.7466    8.6632 H   0  0  0  0  0  0
   -3.6941   -2.4352    9.5830 H   0  0  0  0  0  0
   -2.4997   -2.0283    8.3046 H   0  0  0  0  0  0
   -5.0991   -3.6652    5.9202 H   0  0  0  0  0  0
   -3.8210   -4.5530    6.8173 H   0  0  0  0  0  0
   -5.4039   -4.9722    8.6576 H   0  0  0  0  0  0
   -6.6820   -4.0844    7.7604 H   0  0  0  0  0  0
   -7.3229   -6.5882    5.3638 H   0  0  0  0  0  0
   -6.6028   -4.9569    5.1473 H   0  0  0  0  0  0
   -7.9873   -5.1859    6.2687 H   0  0  0  0  0  0
   -6.9872   -7.8070    7.3320 H   0  0  0  0  0  0
   -7.6330   -6.4719    8.3456 H   0  0  0  0  0  0
   -6.0004   -7.1432    8.6783 H   0  0  0  0  0  0
  -10.0620    0.0781    8.7609 H   0  0  0  0  0  0
   -9.2200   -1.3059    7.9849 H   0  0  0  0  0  0
   -9.4336    0.2342    7.0854 H   0  0  0  0  0  0
   -5.1919   -6.3079    6.5638 H   0  0  0  0  0  0
   -6.1022    1.4737    4.2635 H   0  0  0  0  0  0
  1  2  1  0  0  0
  1 38  1  0  0  0
  1 39  1  0  0  0
  1 40  1  0  0  0
  2 10  1  0  0  0
  2  3  1  0  0  0
  3  4  2  0  0  0
  3 41  1  0  0  0
  4  5  1  0  0  0
  4 11  1  0  0  0
  5 10  2  0  0  0
  5  6  1  0  0  0
  6  7  2  0  0  0
  6 42  1  0  0  0
  7  8  1  0  0  0
  7 43  1  0  0  0
  8  9  2  0  0  0
  8 44  1  0  0  0
  9 10  1  0  0  0
  9 45  1  0  0  0
 11 12  2  0  0  0
 11 16  1  0  0  0
 12 13  1  0  0  0
 13 17  2  0  0  0
 13 14  1  0  0  0
 14 15  1  0  0  0
 14 71  1  0  0  0
 15 16  2  0  0  0
 15 46  1  0  0  0
 16 47  1  0  0  0
 17 18  1  0  0  0
 18 23  2  0  0  0
 18 19  1  0  0  0
 19 20  2  0  0  0
 19 36  1  0  0  0
 20 21  1  0  0  0
 20 48  1  0  0  0
 21 22  2  0  0  0
 21 29  1  0  0  0
 22 23  1  0  0  0
 22 24  1  0  0  0
 23 49  1  0  0  0
 24 25  1  0  0  0
 24 50  1  0  0  0
 25 26  2  0  0  0
 25 27  1  0  0  0
 27 28  2  0  0  0
 27 51  1  0  0  0
 28 52  1  0  0  0
 28 53  1  0  0  0
 29 30  1  0  0  0
 29 31  1  0  0  0
 30 54  1  0  0  0
 30 55  1  0  0  0
 30 56  1  0  0  0
 31 32  1  0  0  0
 31 57  1  0  0  0
 31 58  1  0  0  0
 32 33  1  0  0  0
 32 59  1  0  0  0
 32 60  1  0  0  0
 33 34  1  0  0  0
 33 35  1  0  0  0
 33 70  1  0  0  0
 34 61  1  0  0  0
 34 62  1  0  0  0
 34 63  1  0  0  0
 35 64  1  0  0  0
 35 65  1  0  0  0
 35 66  1  0  0  0
 36 37  1  0  0  0
 37 67  1  0  0  0
 37 68  1  0  0  0
 37 69  1  0  0  0
M  CHG  1  33   1
M  END
> <s_m_source_file>
/Users/andrea/Development/mcce-charges/epik_inhibitors/output/Osimertinib/Osimertinib-input.mol2

> <i_m_source_file_index>
1

> <r_epik_Ionization_Penalty>
  8.3654

> <r_epik_Ionization_Penalty_Charging>
  8.3649

> <r_epik_Ionization_Penalty_Neutral>
  0.0004

> <r_epik_State_Penalty>
 10.6299

> <i_epik_Tot_Q>
1

$$$$
~{N}-[2-[2-(dimethylamino)ethyl-methyl-amino]-4-methoxy-5-[[4-(1-methylindol-3-yl)pyrimidin-2-yl]amino]phenyl]prop-2-enamide
                    3D
 Structure written by MMmdl.
 73 76  0  0  1  0            999 V2000
  -11.2397    8.2942    3.0775 C   0  0  0  0  0  0
  -10.3716    7.4871    3.9075 N   0  0  0  0  0  0
   -9.7322    6.3538    3.4818 C   0  0  0  0  0  0
   -9.0005    5.8589    4.5366 C   0  0  0  0  0  0
   -9.2027    6.7245    5.6479 C   0  0  0  0  0  0
   -8.7321    6.7433    6.9759 C   0  0  0  0  0  0
   -9.1424    7.7725    7.8310 C   0  0  0  0  0  0
  -10.0056    8.7705    7.3830 C   0  0  0  0  0  0
  -10.4853    8.7726    6.0700 C   0  0  0  0  0  0
  -10.0667    7.7375    5.2264 C   0  0  0  0  0  0
   -8.2053    4.6694    4.4284 C   0  0  0  0  0  0
   -8.0637    3.9524    5.5626 N   0  0  0  0  0  0
   -7.3151    2.8396    5.4416 C   0  0  0  0  0  0
   -6.7109    2.3878    4.3261 N   0  0  0  0  0  0
   -6.8941    3.1527    3.2299 C   0  0  0  0  0  0
   -7.6382    4.3147    3.2214 C   0  0  0  0  0  0
   -7.1454    2.0639    6.6092 N   0  0  0  0  0  0
   -7.6128    2.2136    7.9282 C   0  0  0  0  0  0
   -6.8701    1.7262    9.0036 C   0  0  0  0  0  0
   -7.3450    1.8804   10.3061 C   0  0  0  0  0  0
   -8.5626    2.5218   10.5331 C   0  0  0  0  0  0
   -9.3054    3.0091    9.4577 C   0  0  0  0  0  0
   -8.8304    2.8550    8.1552 C   0  0  0  0  0  0
  -10.5273    3.6565    9.6615 N   0  0  0  0  0  0
  -11.3860    4.1981    8.6974 C   0  0  0  0  0  0
  -11.2253    4.2064    7.4827 O   0  3  0  0  0  0
  -12.5967    4.8065    9.3216 C   0  0  0  0  0  0
  -13.5385    5.3771    8.5638 C   0  0  0  0  0  0
   -9.0240    2.6667   11.8606 N   0  3  1  0  0  0
   -9.8566    1.6454   12.4612 C   0  0  0  0  0  0
   -8.6577    3.8316   12.6392 C   0  0  0  0  0  0
   -7.3730    3.6110   13.4127 C   0  0  0  0  0  0
   -7.0029    4.7637   14.1884 N   0  3  0  0  0  0
   -6.3474    5.7829   13.3541 C   0  0  0  0  0  0
   -6.1152    4.3969   15.3029 C   0  0  0  0  0  0
   -5.6781    1.0964    8.8026 O   0  0  0  0  0  0
   -4.5083    1.9117    8.7953 C   0  0  0  0  0  0
  -11.2978    7.8541    2.0711 H   0  0  0  0  0  0
  -10.8358    9.3150    3.0085 H   0  0  0  0  0  0
  -12.2454    8.3270    3.5220 H   0  0  0  0  0  0
   -9.8536    5.9989    2.4662 H   0  0  0  0  0  0
   -8.0590    5.9728    7.3411 H   0  0  0  0  0  0
   -8.7828    7.7922    8.8564 H   0  0  0  0  0  0
  -10.3114    9.5603    8.0644 H   0  0  0  0  0  0
  -11.1571    9.5522    5.7266 H   0  0  0  0  0  0
   -6.4097    2.7934    2.3281 H   0  0  0  0  0  0
   -7.7593    4.8995    2.3179 H   0  0  0  0  0  0
   -6.5444    1.1432    6.5753 H   0  0  0  0  0  0
   -6.7620    1.4983   11.1409 H   0  0  0  0  0  0
   -9.4089    3.2354    7.3157 H   0  0  0  0  0  0
  -12.7106    4.7827   10.4154 H   0  0  0  0  0  0
  -14.4274    5.8229    9.0340 H   0  0  0  0  0  0
  -13.4246    5.4009    7.4700 H   0  0  0  0  0  0
  -10.1108    1.9382   13.4906 H   0  0  0  0  0  0
   -9.3118    0.6899   12.4757 H   0  0  0  0  0  0
  -10.7796    1.5324   11.8735 H   0  0  0  0  0  0
   -8.5131    4.6908   11.9677 H   0  0  0  0  0  0
   -9.4587    4.0589   13.3581 H   0  0  0  0  0  0
   -7.5004    2.7621   14.1006 H   0  0  0  0  0  0
   -6.5547    3.3941   12.7103 H   0  0  0  0  0  0
   -6.0781    6.6487   13.9769 H   0  0  0  0  0  0
   -7.0359    6.1035   12.5583 H   0  0  0  0  0  0
   -5.4382    5.3584   12.9033 H   0  0  0  0  0  0
   -5.8520    5.2993   15.8742 H   0  0  0  0  0  0
   -5.1997    3.9345   14.9055 H   0  0  0  0  0  0
   -6.6303    3.6827   15.9622 H   0  0  0  0  0  0
   -3.6231    1.2814    8.6245 H   0  0  0  0  0  0
   -4.4123    2.4239    9.7640 H   0  0  0  0  0  0
   -4.5871    2.6588    7.9917 H   0  0  0  0  0  0
   -7.9460    5.1659   14.5868 H   0  0  0  0  0  0
  -11.9817    4.6680    6.8310 H   0  0  0  0  0  0
   -9.9228    3.1826   11.4919 H   0  0  0  0  0  0
  -10.9166    3.7880   10.6819 H   0  0  0  0  0  0
  1  2  1  0  0  0
  1 38  1  0  0  0
  1 39  1  0  0  0
  1 40  1  0  0  0
  2 10  1  0  0  0
  2  3  1  0  0  0
  3  4  2  0  0  0
  3 41  1  0  0  0
  4  5  1  0  0  0
  4 11  1  0  0  0
  5 10  2  0  0  0
  5  6  1  0  0  0
  6  7  2  0  0  0
  6 42  1  0  0  0
  7  8  1  0  0  0
  7 43  1  0  0  0
  8  9  2  0  0  0
  8 44  1  0  0  0
  9 10  1  0  0  0
  9 45  1  0  0  0
 11 16  2  0  0  0
 11 12  1  0  0  0
 12 13  2  0  0  0
 13 14  1  0  0  0
 13 17  1  0  0  0
 14 15  2  0  0  0
 15 16  1  0  0  0
 15 46  1  0  0  0
 16 47  1  0  0  0
 17 18  1  0  0  0
 17 48  1  0  0  0
 18 23  2  0  0  0
 18 19  1  0  0  0
 19 20  2  0  0  0
 19 36  1  0  0  0
 20 21  1  0  0  0
 20 49  1  0  0  0
 21 22  2  0  0  0
 21 29  1  0  0  0
 22 23  1  0  0  0
 22 24  1  0  0  0
 23 50  1  0  0  0
 24 25  1  0  0  0
 24 73  1  0  0  0
 25 26  2  0  0  0
 25 27  1  0  0  0
 26 71  1  0  0  0
 27 28  2  0  0  0
 27 51  1  0  0  0
 28 52  1  0  0  0
 28 53  1  0  0  0
 29 30  1  0  0  0
 29 31  1  0  0  0
 29 72  1  0  0  0
 30 54  1  0  0  0
 30 55  1  0  0  0
 30 56  1  0  0  0
 31 32  1  0  0  0
 31 57  1  0  0  0
 31 58  1  0  0  0
 32 33  1  0  0  0
 32 59  1  0  0  0
 32 60  1  0  0  0
 33 34  1  0  0  0
 33 35  1  0  0  0
 33 70  1  0  0  0
 34 61  1  0  0  0
 34 62  1  0  0  0
 34 63  1  0  0  0
 35 64  1  0  0  0
 35 65  1  0  0  0
 35 66  1  0  0  0
 36 37  1  0  0  0
 37 67  1  0  0  0
 37 68  1  0  0  0
 37 69  1  0  0  0
M  CHG  3  26   1  29   1  33   1
M  END
> <s_m_source_file>
/Users/andrea/Development/mcce-charges/epik_inhibitors/output/Osimertinib/Osimertinib-input.mol2

> <i_m_source_file_index>
1

> <r_lp_tautomer_probability>
0.999999812000036

> <r_epik_Ionization_Penalty>
 13.8546

> <r_epik_Ionization_Penalty_Charging>
 11.7858

> <r_epik_Ionization_Penalty_Neutral>
  2.0688

> <r_epik_State_Penalty>
 10.7776

> <i_epik_Tot_Q>
3

$$$$
~{N}-[2-[2-(dimethylamino)ethyl-methyl-amino]-4-methoxy-5-[[4-(1-methylindol-3-yl)pyrimidin-2-yl]amino]phenyl]prop-2-enamide
                    3D
 Structure written by MMmdl.
 72 75  0  0  1  0            999 V2000
  -11.2397    8.2942    3.0775 C   0  0  0  0  0  0
  -10.3716    7.4871    3.9075 N   0  0  0  0  0  0
   -9.7322    6.3538    3.4818 C   0  0  0  0  0  0
   -9.0005    5.8589    4.5366 C   0  0  0  0  0  0
   -9.2027    6.7245    5.6479 C   0  0  0  0  0  0
   -8.7321    6.7433    6.9759 C   0  0  0  0  0  0
   -9.1424    7.7725    7.8310 C   0  0  0  0  0  0
  -10.0056    8.7705    7.3830 C   0  0  0  0  0  0
  -10.4853    8.7726    6.0700 C   0  0  0  0  0  0
  -10.0667    7.7375    5.2264 C   0  0  0  0  0  0
   -8.2053    4.6694    4.4284 C   0  0  0  0  0  0
   -8.0637    3.9524    5.5626 N   0  3  0  0  0  0
   -7.3151    2.8396    5.4416 C   0  0  0  0  0  0
   -6.7109    2.3878    4.3261 N   0  0  0  0  0  0
   -6.8941    3.1527    3.2299 C   0  0  0  0  0  0
   -7.6382    4.3147    3.2214 C   0  0  0  0  0  0
   -7.1454    2.0639    6.6092 N   0  0  0  0  0  0
   -7.6128    2.2136    7.9282 C   0  0  0  0  0  0
   -6.8701    1.7262    9.0036 C   0  0  0  0  0  0
   -7.3450    1.8804   10.3061 C   0  0  0  0  0  0
   -8.5626    2.5218   10.5331 C   0  0  0  0  0  0
   -9.3054    3.0091    9.4577 C   0  0  0  0  0  0
   -8.8304    2.8550    8.1552 C   0  0  0  0  0  0
  -10.5273    3.6565    9.6615 N   0  0  0  0  0  0
  -11.3860    4.1981    8.6974 C   0  0  0  0  0  0
  -11.2253    4.2064    7.4827 O   0  0  0  0  0  0
  -12.5967    4.8065    9.3216 C   0  0  0  0  0  0
  -13.5385    5.3771    8.5638 C   0  0  0  0  0  0
   -9.0240    2.6667   11.8606 N   0  0  0  0  0  0
   -9.8566    1.6454   12.4612 C   0  0  0  0  0  0
   -8.6577    3.8316   12.6392 C   0  0  0  0  0  0
   -7.3730    3.6110   13.4127 C   0  0  0  0  0  0
   -7.0029    4.7637   14.1884 N   0  3  0  0  0  0
   -6.3474    5.7829   13.3541 C   0  0  0  0  0  0
   -6.1152    4.3969   15.3029 C   0  0  0  0  0  0
   -5.6781    1.0964    8.8026 O   0  0  0  0  0  0
   -4.5083    1.9117    8.7953 C   0  0  0  0  0  0
  -11.2978    7.8541    2.0711 H   0  0  0  0  0  0
  -10.8358    9.3150    3.0085 H   0  0  0  0  0  0
  -12.2454    8.3270    3.5220 H   0  0  0  0  0  0
   -9.8536    5.9989    2.4662 H   0  0  0  0  0  0
   -8.0590    5.9728    7.3411 H   0  0  0  0  0  0
   -8.7828    7.7922    8.8564 H   0  0  0  0  0  0
  -10.3114    9.5603    8.0644 H   0  0  0  0  0  0
  -11.1571    9.5522    5.7266 H   0  0  0  0  0  0
   -6.4097    2.7934    2.3281 H   0  0  0  0  0  0
   -7.7593    4.8995    2.3179 H   0  0  0  0  0  0
   -6.5444    1.1432    6.5753 H   0  0  0  0  0  0
   -6.7620    1.4983   11.1409 H   0  0  0  0  0  0
   -9.4089    3.2354    7.3157 H   0  0  0  0  0  0
  -10.9166    3.7880   10.6819 H   0  0  0  0  0  0
  -12.7106    4.7827   10.4154 H   0  0  0  0  0  0
  -14.4274    5.8229    9.0340 H   0  0  0  0  0  0
  -13.4246    5.4009    7.4700 H   0  0  0  0  0  0
  -10.1108    1.9382   13.4906 H   0  0  0  0  0  0
   -9.3118    0.6899   12.4757 H   0  0  0  0  0  0
  -10.7796    1.5324   11.8735 H   0  0  0  0  0  0
   -8.5131    4.6908   11.9677 H   0  0  0  0  0  0
   -9.4587    4.0589   13.3581 H   0  0  0  0  0  0
   -7.5004    2.7621   14.1006 H   0  0  0  0  0  0
   -6.5547    3.3941   12.7103 H   0  0  0  0  0  0
   -6.0781    6.6487   13.9769 H   0  0  0  0  0  0
   -7.0359    6.1035   12.5583 H   0  0  0  0  0  0
   -5.4382    5.3584   12.9033 H   0  0  0  0  0  0
   -5.8520    5.2993   15.8742 H   0  0  0  0  0  0
   -5.1997    3.9345   14.9055 H   0  0  0  0  0  0
   -6.6303    3.6827   15.9622 H   0  0  0  0  0  0
   -3.6231    1.2814    8.6245 H   0  0  0  0  0  0
   -4.4123    2.4239    9.7640 H   0  0  0  0  0  0
   -4.5871    2.6588    7.9917 H   0  0  0  0  0  0
   -7.9460    5.1659   14.5868 H   0  0  0  0  0  0
   -8.5436    4.2928    6.4920 H   0  0  0  0  0  0
  1  2  1  0  0  0
  1 38  1  0  0  0
  1 39  1  0  0  0
  1 40  1  0  0  0
  2 10  1  0  0  0
  2  3  1  0  0  0
  3  4  2  0  0  0
  3 41  1  0  0  0
  4  5  1  0  0  0
  4 11  1  0  0  0
  5 10  2  0  0  0
  5  6  1  0  0  0
  6  7  2  0  0  0
  6 42  1  0  0  0
  7  8  1  0  0  0
  7 43  1  0  0  0
  8  9  2  0  0  0
  8 44  1  0  0  0
  9 10  1  0  0  0
  9 45  1  0  0  0
 11 16  2  0  0  0
 11 12  1  0  0  0
 12 13  2  0  0  0
 12 72  1  0  0  0
 13 14  1  0  0  0
 13 17  1  0  0  0
 14 15  2  0  0  0
 15 16  1  0  0  0
 15 46  1  0  0  0
 16 47  1  0  0  0
 17 18  1  0  0  0
 17 48  1  0  0  0
 18 23  2  0  0  0
 18 19  1  0  0  0
 19 20  2  0  0  0
 19 36  1  0  0  0
 20 21  1  0  0  0
 20 49  1  0  0  0
 21 22  2  0  0  0
 21 29  1  0  0  0
 22 23  1  0  0  0
 22 24  1  0  0  0
 23 50  1  0  0  0
 24 25  1  0  0  0
 24 51  1  0  0  0
 25 26  2  0  0  0
 25 27  1  0  0  0
 27 28  2  0  0  0
 27 52  1  0  0  0
 28 53  1  0  0  0
 28 54  1  0  0  0
 29 30  1  0  0  0
 29 31  1  0  0  0
 30 55  1  0  0  0
 30 56  1  0  0  0
 30 57  1  0  0  0
 31 32  1  0  0  0
 31 58  1  0  0  0
 31 59  1  0  0  0
 32 33  1  0  0  0
 32 60  1  0  0  0
 32 61  1  0  0  0
 33 34  1  0  0  0
 33 35  1  0  0  0
 33 71  1  0  0  0
 34 62  1  0  0  0
 34 63  1  0  0  0
 34 64  1  0  0  0
 35 65  1  0  0  0
 35 66  1  0  0  0
 35 67  1  0  0  0
 36 37  1  0  0  0
 37 68  1  0  0  0
 37 69  1  0  0  0
 37 70  1  0  0  0
M  CHG  2  12   1  33   1
M  END
> <s_m_source_file>
/Users/andrea/Development/mcce-charges/epik_inhibitors/output/Osimertinib/Osimertinib-input.mol2

> <i_m_source_file_index>
1

> <r_epik_Ionization_Penalty>
  6.3514

> <r_epik_Ionization_Penalty_Charging>
  6.3459

> <r_epik_Ionization_Penalty_Neutral>
  0.0055

> <r_epik_State_Penalty>
 11.5548

> <i_epik_Tot_Q>
2

$$$$
~{N}-[2-[2-(dimethylamino)ethyl-methyl-amino]-4-methoxy-5-[[4-(1-methylindol-3-yl)pyrimidin-2-yl]amino]phenyl]prop-2-enamide
                    3D
 Structure written by MMmdl.
 72 75  0  0  1  0            999 V2000
  -11.2397    8.2942    3.0775 C   0  0  0  0  0  0
  -10.3716    7.4871    3.9075 N   0  0  0  0  0  0
   -9.7322    6.3538    3.4818 C   0  0  0  0  0  0
   -9.0005    5.8589    4.5366 C   0  0  0  0  0  0
   -9.2027    6.7245    5.6479 C   0  0  0  0  0  0
   -8.7321    6.7433    6.9759 C   0  0  0  0  0  0
   -9.1424    7.7725    7.8310 C   0  0  0  0  0  0
  -10.0056    8.7705    7.3830 C   0  0  0  0  0  0
  -10.4853    8.7726    6.0700 C   0  0  0  0  0  0
  -10.0667    7.7375    5.2264 C   0  0  0  0  0  0
   -8.2053    4.6694    4.4284 C   0  0  0  0  0  0
   -8.0637    3.9524    5.5626 N   0  0  0  0  0  0
   -7.3151    2.8396    5.4416 C   0  0  0  0  0  0
   -6.7109    2.3878    4.3261 N   0  3  0  0  0  0
   -6.8941    3.1527    3.2299 C   0  0  0  0  0  0
   -7.6382    4.3147    3.2214 C   0  0  0  0  0  0
   -7.1454    2.0639    6.6092 N   0  0  0  0  0  0
   -7.6128    2.2136    7.9282 C   0  0  0  0  0  0
   -6.8701    1.7262    9.0036 C   0  0  0  0  0  0
   -7.3450    1.8804   10.3061 C   0  0  0  0  0  0
   -8.5626    2.5218   10.5331 C   0  0  0  0  0  0
   -9.3054    3.0091    9.4577 C   0  0  0  0  0  0
   -8.8304    2.8550    8.1552 C   0  0  0  0  0  0
  -10.5273    3.6565    9.6615 N   0  0  0  0  0  0
  -11.3860    4.1981    8.6974 C   0  0  0  0  0  0
  -11.2253    4.2064    7.4827 O   0  0  0  0  0  0
  -12.5967    4.8065    9.3216 C   0  0  0  0  0  0
  -13.5385    5.3771    8.5638 C   0  0  0  0  0  0
   -9.0240    2.6667   11.8606 N   0  0  0  0  0  0
   -9.8566    1.6454   12.4612 C   0  0  0  0  0  0
   -8.6577    3.8316   12.6392 C   0  0  0  0  0  0
   -7.3730    3.6110   13.4127 C   0  0  0  0  0  0
   -7.0029    4.7637   14.1884 N   0  3  0  0  0  0
   -6.3474    5.7829   13.3541 C   0  0  0  0  0  0
   -6.1152    4.3969   15.3029 C   0  0  0  0  0  0
   -5.6781    1.0964    8.8026 O   0  0  0  0  0  0
   -4.5083    1.9117    8.7953 C   0  0  0  0  0  0
  -11.2978    7.8541    2.0711 H   0  0  0  0  0  0
  -10.8358    9.3150    3.0085 H   0  0  0  0  0  0
  -12.2454    8.3270    3.5220 H   0  0  0  0  0  0
   -9.8536    5.9989    2.4662 H   0  0  0  0  0  0
   -8.0590    5.9728    7.3411 H   0  0  0  0  0  0
   -8.7828    7.7922    8.8564 H   0  0  0  0  0  0
  -10.3114    9.5603    8.0644 H   0  0  0  0  0  0
  -11.1571    9.5522    5.7266 H   0  0  0  0  0  0
   -6.4097    2.7934    2.3281 H   0  0  0  0  0  0
   -7.7593    4.8995    2.3179 H   0  0  0  0  0  0
   -6.5444    1.1432    6.5753 H   0  0  0  0  0  0
   -6.7620    1.4983   11.1409 H   0  0  0  0  0  0
   -9.4089    3.2354    7.3157 H   0  0  0  0  0  0
  -10.9166    3.7880   10.6819 H   0  0  0  0  0  0
  -12.7106    4.7827   10.4154 H   0  0  0  0  0  0
  -14.4274    5.8229    9.0340 H   0  0  0  0  0  0
  -13.4246    5.4009    7.4700 H   0  0  0  0  0  0
  -10.1108    1.9382   13.4906 H   0  0  0  0  0  0
   -9.3118    0.6899   12.4757 H   0  0  0  0  0  0
  -10.7796    1.5324   11.8735 H   0  0  0  0  0  0
   -8.5131    4.6908   11.9677 H   0  0  0  0  0  0
   -9.4587    4.0589   13.3581 H   0  0  0  0  0  0
   -7.5004    2.7621   14.1006 H   0  0  0  0  0  0
   -6.5547    3.3941   12.7103 H   0  0  0  0  0  0
   -6.0781    6.6487   13.9769 H   0  0  0  0  0  0
   -7.0359    6.1035   12.5583 H   0  0  0  0  0  0
   -5.4382    5.3584   12.9033 H   0  0  0  0  0  0
   -5.8520    5.2993   15.8742 H   0  0  0  0  0  0
   -5.1997    3.9345   14.9055 H   0  0  0  0  0  0
   -6.6303    3.6827   15.9622 H   0  0  0  0  0  0
   -3.6231    1.2814    8.6245 H   0  0  0  0  0  0
   -4.4123    2.4239    9.7640 H   0  0  0  0  0  0
   -4.5871    2.6588    7.9917 H   0  0  0  0  0  0
   -7.9460    5.1659   14.5868 H   0  0  0  0  0  0
   -6.1226    1.4589    4.3570 H   0  0  0  0  0  0
  1  2  1  0  0  0
  1 38  1  0  0  0
  1 39  1  0  0  0
  1 40  1  0  0  0
  2 10  1  0  0  0
  2  3  1  0  0  0
  3  4  2  0  0  0
  3 41  1  0  0  0
  4  5  1  0  0  0
  4 11  1  0  0  0
  5 10  2  0  0  0
  5  6  1  0  0  0
  6  7  2  0  0  0
  6 42  1  0  0  0
  7  8  1  0  0  0
  7 43  1  0  0  0
  8  9  2  0  0  0
  8 44  1  0  0  0
  9 10  1  0  0  0
  9 45  1  0  0  0
 11 16  2  0  0  0
 11 12  1  0  0  0
 12 13  2  0  0  0
 13 14  1  0  0  0
 13 17  1  0  0  0
 14 15  2  0  0  0
 14 72  1  0  0  0
 15 16  1  0  0  0
 15 46  1  0  0  0
 16 47  1  0  0  0
 17 18  1  0  0  0
 17 48  1  0  0  0
 18 23  2  0  0  0
 18 19  1  0  0  0
 19 20  2  0  0  0
 19 36  1  0  0  0
 20 21  1  0  0  0
 20 49  1  0  0  0
 21 22  2  0  0  0
 21 29  1  0  0  0
 22 23  1  0  0  0
 22 24  1  0  0  0
 23 50  1  0  0  0
 24 25  1  0  0  0
 24 51  1  0  0  0
 25 26  2  0  0  0
 25 27  1  0  0  0
 27 28  2  0  0  0
 27 52  1  0  0  0
 28 53  1  0  0  0
 28 54  1  0  0  0
 29 30  1  0  0  0
 29 31  1  0  0  0
 30 55  1  0  0  0
 30 56  1  0  0  0
 30 57  1  0  0  0
 31 32  1  0  0  0
 31 58  1  0  0  0
 31 59  1  0  0  0
 32 33  1  0  0  0
 32 60  1  0  0  0
 32 61  1  0  0  0
 33 34  1  0  0  0
 33 35  1  0  0  0
 33 71  1  0  0  0
 34 62  1  0  0  0
 34 63  1  0  0  0
 34 64  1  0  0  0
 35 65  1  0  0  0
 35 66  1  0  0  0
 35 67  1  0  0  0
 36 37  1  0  0  0
 37 68  1  0  0  0
 37 69  1  0  0  0
 37 70  1  0  0  0
M  CHG  2  14   1  33   1
M  END
> <s_m_source_file>
/Users/andrea/Development/mcce-charges/epik_inhibitors/output/Osimertinib/Osimertinib-input.mol2

> <i_m_source_file_index>
1

> <r_epik_Ionization_Penalty>
  5.8977

> <r_epik_Ionization_Penalty_Charging>
  5.8922

> <r_epik_Ionization_Penalty_Neutral>
  0.0055

> <r_epik_State_Penalty>
 11.6770

> <i_epik_Tot_Q>
2

$$$$
~{N}-[2-[2-(dimethylamino)ethyl-methyl-amino]-4-methoxy-5-[[4-(1-methylindol-3-yl)pyrimidin-2-yl]amino]phenyl]prop-2-enamide
                    3D
 Structure written by MMmdl.
 70 73  0  0  1  0            999 V2000
  -11.2390    8.2949    3.0778 C   0  0  0  0  0  0
  -10.3709    7.4876    3.9078 N   0  0  0  0  0  0
   -9.7318    6.3542    3.4820 C   0  0  0  0  0  0
   -9.0000    5.8592    4.5367 C   0  0  0  0  0  0
   -9.2019    6.7249    5.6480 C   0  0  0  0  0  0
   -8.7312    6.7436    6.9760 C   0  0  0  0  0  0
   -9.1412    7.7729    7.8311 C   0  0  0  0  0  0
  -10.0042    8.7711    7.3832 C   0  0  0  0  0  0
  -10.4841    8.7732    6.0702 C   0  0  0  0  0  0
  -10.0658    7.7380    5.2266 C   0  0  0  0  0  0
   -8.2051    4.6695    4.4285 C   0  0  0  0  0  0
   -8.0637    3.9524    5.5626 N   0  0  0  0  0  0
   -7.3151    2.8396    5.4416 C   0  0  0  0  0  0
   -6.7095    2.3887    4.3265 N   0  0  0  0  0  0
   -6.8928    3.1535    3.2303 C   0  0  0  0  0  0
   -7.6374    4.3152    3.2216 C   0  0  0  0  0  0
   -7.1454    2.0639    6.6092 N   0  0  0  0  0  0
   -7.6128    2.2136    7.9282 C   0  0  0  0  0  0
   -6.8701    1.7262    9.0036 C   0  0  0  0  0  0
   -7.3450    1.8804   10.3061 C   0  0  0  0  0  0
   -8.5626    2.5218   10.5331 C   0  0  0  0  0  0
   -9.3054    3.0091    9.4577 C   0  0  0  0  0  0
   -8.8304    2.8550    8.1552 C   0  0  0  0  0  0
  -10.5273    3.6565    9.6615 N   0  0  0  0  0  0
  -11.3860    4.1981    8.6974 C   0  0  0  0  0  0
  -11.2253    4.2064    7.4827 O   0  0  0  0  0  0
  -12.5967    4.8065    9.3216 C   0  0  0  0  0  0
  -13.5385    5.3771    8.5638 C   0  0  0  0  0  0
   -9.0240    2.6667   11.8606 N   0  0  0  0  0  0
   -9.8566    1.6454   12.4612 C   0  0  0  0  0  0
   -8.6577    3.8316   12.6392 C   0  0  0  0  0  0
   -7.3730    3.6110   13.4127 C   0  0  0  0  0  0
   -7.0029    4.7637   14.1884 N   0  0  0  0  0  0
   -6.3474    5.7829   13.3541 C   0  0  0  0  0  0
   -6.1152    4.3969   15.3029 C   0  0  0  0  0  0
   -5.6781    1.0964    8.8026 O   0  0  0  0  0  0
   -4.5083    1.9117    8.7953 C   0  0  0  0  0  0
  -11.2973    7.8547    2.0714 H   0  0  0  0  0  0
  -10.8349    9.3156    3.0088 H   0  0  0  0  0  0
  -12.2446    8.3279    3.5225 H   0  0  0  0  0  0
   -9.7217    5.8814    2.6009 H   0  0  0  0  0  0
   -8.1117    6.0331    7.3098 H   0  0  0  0  0  0
   -8.8145    7.7979    8.7759 H   0  0  0  0  0  0
  -10.2797    9.4935    8.0174 H   0  0  0  0  0  0
  -11.1028    9.4972    5.7652 H   0  0  0  0  0  0
   -6.4521    2.8359    2.3907 H   0  0  0  0  0  0
   -7.7364    4.8393    2.3758 H   0  0  0  0  0  0
   -6.7620    1.4983   11.1409 H   0  0  0  0  0  0
   -9.4089    3.2354    7.3157 H   0  0  0  0  0  0
  -10.9166    3.7880   10.6819 H   0  0  0  0  0  0
  -12.7106    4.7827   10.4154 H   0  0  0  0  0  0
  -14.4274    5.8229    9.0340 H   0  0  0  0  0  0
  -13.4246    5.4009    7.4700 H   0  0  0  0  0  0
  -10.1108    1.9382   13.4906 H   0  0  0  0  0  0
   -9.3118    0.6899   12.4757 H   0  0  0  0  0  0
  -10.7796    1.5324   11.8735 H   0  0  0  0  0  0
   -8.5131    4.6908   11.9677 H   0  0  0  0  0  0
   -9.4587    4.0589   13.3581 H   0  0  0  0  0  0
   -7.5004    2.7621   14.1006 H   0  0  0  0  0  0
   -6.5547    3.3941   12.7103 H   0  0  0  0  0  0
   -6.0781    6.6487   13.9769 H   0  0  0  0  0  0
   -7.0359    6.1035   12.5583 H   0  0  0  0  0  0
   -5.4382    5.3584   12.9033 H   0  0  0  0  0  0
   -5.8520    5.2993   15.8742 H   0  0  0  0  0  0
   -5.1997    3.9345   14.9055 H   0  0  0  0  0  0
   -6.6303    3.6827   15.9622 H   0  0  0  0  0  0
   -3.6231    1.2814    8.6245 H   0  0  0  0  0  0
   -4.4123    2.4239    9.7640 H   0  0  0  0  0  0
   -4.5871    2.6588    7.9917 H   0  0  0  0  0  0
   -6.1022    1.4737    4.2635 H   0  0  0  0  0  0
  1  2  1  0  0  0
  1 38  1  0  0  0
  1 39  1  0  0  0
  1 40  1  0  0  0
  2 10  1  0  0  0
  2  3  1  0  0  0
  3  4  2  0  0  0
  3 41  1  0  0  0
  4  5  1  0  0  0
  4 11  1  0  0  0
  5 10  2  0  0  0
  5  6  1  0  0  0
  6  7  2  0  0  0
  6 42  1  0  0  0
  7  8  1  0  0  0
  7 43  1  0  0  0
  8  9  2  0  0  0
  8 44  1  0  0  0
  9 10  1  0  0  0
  9 45  1  0  0  0
 11 12  2  0  0  0
 11 16  1  0  0  0
 12 13  1  0  0  0
 13 17  2  0  0  0
 13 14  1  0  0  0
 14 15  1  0  0  0
 14 70  1  0  0  0
 15 16  2  0  0  0
 15 46  1  0  0  0
 16 47  1  0  0  0
 17 18  1  0  0  0
 18 23  2  0  0  0
 18 19  1  0  0  0
 19 20  2  0  0  0
 19 36  1  0  0  0
 20 21  1  0  0  0
 20 48  1  0  0  0
 21 22  2  0  0  0
 21 29  1  0  0  0
 22 23  1  0  0  0
 22 24  1  0  0  0
 23 49  1  0  0  0
 24 25  1  0  0  0
 24 50  1  0  0  0
 25 26  2  0  0  0
 25 27  1  0  0  0
 27 28  2  0  0  0
 27 51  1  0  0  0
 28 52  1  0  0  0
 28 53  1  0  0  0
 29 30  1  0  0  0
 29 31  1  0  0  0
 30 54  1  0  0  0
 30 55  1  0  0  0
 30 56  1  0  0  0
 31 32  1  0  0  0
 31 57  1  0  0  0
 31 58  1  0  0  0
 32 33  1  0  0  0
 32 59  1  0  0  0
 32 60  1  0  0  0
 33 34  1  0  0  0
 33 35  1  0  0  0
 34 61  1  0  0  0
 34 62  1  0  0  0
 34 63  1  0  0  0
 35 64  1  0  0  0
 35 65  1  0  0  0
 35 66  1  0  0  0
 36 37  1  0  0  0
 37 67  1  0  0  0
 37 68  1  0  0  0
 37 69  1  0  0  0
M  END
> <s_m_source_file>
/Users/andrea/Development/mcce-charges/epik_inhibitors/output/Osimertinib/Osimertinib-input.mol2

> <i_m_source_file_index>
1

> <r_epik_Ionization_Penalty>
 10.8347

> <r_epik_Ionization_Penalty_Charging>
  8.3554

> <r_epik_Ionization_Penalty_Neutral>
  2.4793

> <r_epik_State_Penalty>
 13.2350

> <i_epik_Tot_Q>
0

$$$$
~{N}-[2-[2-(dimethylamino)ethyl-methyl-amino]-4-methoxy-5-[[4-(1-methylindol-3-yl)pyrimidin-2-yl]amino]phenyl]prop-2-enamide
                    3D
 Structure written by MMmdl.
 70 73  0  0  1  0            999 V2000
  -11.2390    8.2949    3.0778 C   0  0  0  0  0  0
  -10.3709    7.4876    3.9078 N   0  0  0  0  0  0
   -9.7318    6.3542    3.4820 C   0  0  0  0  0  0
   -9.0000    5.8592    4.5367 C   0  0  0  0  0  0
   -9.2019    6.7249    5.6480 C   0  0  0  0  0  0
   -8.7312    6.7436    6.9760 C   0  0  0  0  0  0
   -9.1412    7.7729    7.8311 C   0  0  0  0  0  0
  -10.0042    8.7711    7.3832 C   0  0  0  0  0  0
  -10.4841    8.7732    6.0702 C   0  0  0  0  0  0
  -10.0658    7.7380    5.2266 C   0  0  0  0  0  0
   -8.2051    4.6695    4.4285 C   0  0  0  0  0  0
   -8.0637    3.9524    5.5626 N   0  0  0  0  0  0
   -7.3151    2.8396    5.4416 C   0  0  0  0  0  0
   -6.7095    2.3887    4.3265 N   0  0  0  0  0  0
   -6.8928    3.1535    3.2303 C   0  0  0  0  0  0
   -7.6374    4.3152    3.2216 C   0  0  0  0  0  0
   -7.1454    2.0639    6.6092 N   0  0  0  0  0  0
   -6.4491    0.8679    6.8651 C   0  0  0  0  0  0
   -6.8922   -0.0140    7.8507 C   0  0  0  0  0  0
   -6.1925   -1.1957    8.0950 C   0  0  0  0  0  0
   -5.0497   -1.4954    7.3537 C   0  0  0  0  0  0
   -4.6064   -0.6135    6.3681 C   0  0  0  0  0  0
   -5.3063    0.5682    6.1238 C   0  0  0  0  0  0
   -3.4648   -0.8940    5.6119 N   0  0  0  0  0  0
   -2.8941   -0.1194    4.5949 C   0  0  0  0  0  0
   -3.2927    0.9597    4.1728 O   0  0  0  0  0  0
   -1.6746   -0.7678    4.0309 C   0  0  0  0  0  0
   -0.9860   -0.1811    3.0468 C   0  0  0  0  0  0
   -4.3569   -2.6980    7.6182 N   0  0  0  0  0  0
   -3.2941   -2.7289    8.6013 C   0  0  0  0  0  0
   -4.7117   -3.9156    6.9188 C   0  0  0  0  0  0
   -5.7764   -4.7005    7.6589 C   0  0  0  0  0  0
   -6.1339   -5.9111    6.9703 N   0  0  0  0  0  0
   -7.0708   -5.6437    5.8680 C   0  0  0  0  0  0
   -6.7260   -6.8954    7.8896 C   0  0  0  0  0  0
   -8.0066    0.2609    8.5860 O   0  0  0  0  0  0
   -9.2517   -0.2101    8.0751 C   0  0  0  0  0  0
  -11.2973    7.8547    2.0714 H   0  0  0  0  0  0
  -10.8349    9.3156    3.0088 H   0  0  0  0  0  0
  -12.2446    8.3279    3.5225 H   0  0  0  0  0  0
   -9.7217    5.8814    2.6009 H   0  0  0  0  0  0
   -8.1117    6.0331    7.3098 H   0  0  0  0  0  0
   -8.8145    7.7979    8.7759 H   0  0  0  0  0  0
  -10.2797    9.4935    8.0174 H   0  0  0  0  0  0
  -11.1028    9.4972    5.7652 H   0  0  0  0  0  0
   -6.4521    2.8359    2.3907 H   0  0  0  0  0  0
   -7.7364    4.8393    2.3758 H   0  0  0  0  0  0
   -6.5423   -1.8797    8.8648 H   0  0  0  0  0  0
   -4.9616    1.2565    5.3546 H   0  0  0  0  0  0
   -2.9013   -1.8217    5.7901 H   0  0  0  0  0  0
   -1.3435   -1.7371    4.4319 H   0  0  0  0  0  0
   -0.0881   -0.6677    2.6379 H   0  0  0  0  0  0
   -1.3171    0.7882    2.6458 H   0  0  0  0  0  0
   -2.8813   -3.7466    8.6632 H   0  0  0  0  0  0
   -3.6941   -2.4352    9.5830 H   0  0  0  0  0  0
   -2.4997   -2.0283    8.3046 H   0  0  0  0  0  0
   -5.0991   -3.6652    5.9202 H   0  0  0  0  0  0
   -3.8210   -4.5530    6.8173 H   0  0  0  0  0  0
   -5.4039   -4.9722    8.6576 H   0  0  0  0  0  0
   -6.6820   -4.0844    7.7604 H   0  0  0  0  0  0
   -7.3229   -6.5882    5.3638 H   0  0  0  0  0  0
   -6.6028   -4.9569    5.1473 H   0  0  0  0  0  0
   -7.9873   -5.1859    6.2687 H   0  0  0  0  0  0
   -6.9872   -7.8070    7.3320 H   0  0  0  0  0  0
   -7.6330   -6.4719    8.3456 H   0  0  0  0  0  0
   -6.0004   -7.1432    8.6783 H   0  0  0  0  0  0
  -10.0620    0.0781    8.7609 H   0  0  0  0  0  0
   -9.2200   -1.3059    7.9849 H   0  0  0  0  0  0
   -9.4336    0.2342    7.0854 H   0  0  0  0  0  0
   -6.1022    1.4737    4.2635 H   0  0  0  0  0  0
  1  2  1  0  0  0
  1 38  1  0  0  0
  1 39  1  0  0  0
  1 40  1  0  0  0
  2 10  1  0  0  0
  2  3  1  0  0  0
  3  4  2  0  0  0
  3 41  1  0  0  0
  4  5  1  0  0  0
  4 11  1  0  0  0
  5 10  2  0  0  0
  5  6  1  0  0  0
  6  7  2  0  0  0
  6 42  1  0  0  0
  7  8  1  0  0  0
  7 43  1  0  0  0
  8  9  2  0  0  0
  8 44  1  0  0  0
  9 10  1  0  0  0
  9 45  1  0  0  0
 11 12  2  0  0  0
 11 16  1  0  0  0
 12 13  1  0  0  0
 13 17  2  0  0  0
 13 14  1  0  0  0
 14 15  1  0  0  0
 14 70  1  0  0  0
 15 16  2  0  0  0
 15 46  1  0  0  0
 16 47  1  0  0  0
 17 18  1  0  0  0
 18 23  2  0  0  0
 18 19  1  0  0  0
 19 20  2  0  0  0
 19 36  1  0  0  0
 20 21  1  0  0  0
 20 48  1  0  0  0
 21 22  2  0  0  0
 21 29  1  0  0  0
 22 23  1  0  0  0
 22 24  1  0  0  0
 23 49  1  0  0  0
 24 25  1  0  0  0
 24 50  1  0  0  0
 25 26  2  0  0  0
 25 27  1  0  0  0
 27 28  2  0  0  0
 27 51  1  0  0  0
 28 52  1  0  0  0
 28 53  1  0  0  0
 29 30  1  0  0  0
 29 31  1  0  0  0
 30 54  1  0  0  0
 30 55  1  0  0  0
 30 56  1  0  0  0
 31 32  1  0  0  0
 31 57  1  0  0  0
 31 58  1  0  0  0
 32 33  1  0  0  0
 32 59  1  0  0  0
 32 60  1  0  0  0
 33 34  1  0  0  0
 33 35  1  0  0  0
 34 61  1  0  0  0
 34 62  1  0  0  0
 34 63  1  0  0  0
 35 64  1  0  0  0
 35 65  1  0  0  0
 35 66  1  0  0  0
 36 37  1  0  0  0
 37 67  1  0  0  0
 37 68  1  0  0  0
 37 69  1  0  0  0
M  END
> <s_m_source_file>
/Users/andrea/Development/mcce-charges/epik_inhibitors/output/Osimertinib/Osimertinib-input.mol2

> <i_m_source_file_index>
1

> <r_epik_Ionization_Penalty>
 10.8347

> <r_epik_Ionization_Penalty_Charging>
  8.3554

> <r_epik_Ionization_Penalty_Neutral>
  2.4793

> <r_epik_State_Penalty>
 13.2350

> <i_epik_Tot_Q>
0

$$$$
