~{N}-[2-[2-(dimethylamino)ethyl-methyl-amino]-4-methoxy-5-[[4-(1-methylindol-3-yl)pyrimidin-2-yl]amino]phenyl]prop-2-enamide
                    3D
 Structure written by MMmdl.
 71 74  0  0  1  0            999 V2000
  -11.2397    8.2942    3.0775 C   0  0  0  0  0  0
  -10.3716    7.4871    3.9075 N   0  0  0  0  0  0
   -9.7322    6.3538    3.4818 C   0  0  0  0  0  0
   -9.0005    5.8589    4.5366 C   0  0  0  0  0  0
   -9.2027    6.7245    5.6479 C   0  0  0  0  0  0
   -8.7321    6.7433    6.9759 C   0  0  0  0  0  0
   -9.1424    7.7725    7.8310 C   0  0  0  0  0  0
  -10.0056    8.7705    7.3830 C   0  0  0  0  0  0
  -10.4853    8.7726    6.0700 C   0  0  0  0  0  0
  -10.0667    7.7375    5.2264 C   0  0  0  0  0  0
   -8.2053    4.6694    4.4284 C   0  0  0  0  0  0
   -8.0637    3.9524    5.5626 N   0  0  0  0  0  0
   -7.3151    2.8396    5.4416 C   0  0  0  0  0  0
   -6.7109    2.3878    4.3261 N   0  0  0  0  0  0
   -6.8941    3.1527    3.2299 C   0  0  0  0  0  0
   -7.6382    4.3147    3.2214 C   0  0  0  0  0  0
   -7.1454    2.0639    6.6092 N   0  0  0  0  0  0
   -7.6128    2.2136    7.9282 C   0  0  0  0  0  0
   -6.8701    1.7262    9.0036 C   0  0  0  0  0  0
   -7.3450    1.8804   10.3061 C   0  0  0  0  0  0
   -8.5626    2.5218   10.5331 C   0  0  0  0  0  0
   -9.3054    3.0091    9.4577 C   0  0  0  0  0  0
   -8.8304    2.8550    8.1552 C   0  0  0  0  0  0
  -10.5273    3.6565    9.6615 N   0  0  0  0  0  0
  -11.3860    4.1981    8.6974 C   0  0  0  0  0  0
  -11.2253    4.2064    7.4827 O   0  0  0  0  0  0
  -12.5967    4.8065    9.3216 C   0  0  0  0  0  0
  -13.5385    5.3771    8.5638 C   0  0  0  0  0  0
   -9.0240    2.6667   11.8606 N   0  0  0  0  0  0
   -9.8566    1.6454   12.4612 C   0  0  0  0  0  0
   -8.6577    3.8316   12.6392 C   0  0  0  0  0  0
   -7.3730    3.6110   13.4127 C   0  0  0  0  0  0
   -7.0029    4.7637   14.1884 N   0  3  0  0  0  0
   -6.3474    5.7829   13.3541 C   0  0  0  0  0  0
   -6.1152    4.3969   15.3029 C   0  0  0  0  0  0
   -5.6781    1.0964    8.8026 O   0  0  0  0  0  0
   -4.5083    1.9117    8.7953 C   0  0  0  0  0  0
  -11.2978    7.8541    2.0711 H   0  0  0  0  0  0
  -10.8358    9.3150    3.0085 H   0  0  0  0  0  0
  -12.2454    8.3270    3.5220 H   0  0  0  0  0  0
   -9.8536    5.9989    2.4662 H   0  0  0  0  0  0
   -8.0590    5.9728    7.3411 H   0  0  0  0  0  0
   -8.7828    7.7922    8.8564 H   0  0  0  0  0  0
  -10.3114    9.5603    8.0644 H   0  0  0  0  0  0
  -11.1571    9.5522    5.7266 H   0  0  0  0  0  0
   -6.4097    2.7934    2.3281 H   0  0  0  0  0  0
   -7.7593    4.8995    2.3179 H   0  0  0  0  0  0
   -6.5444    1.1432    6.5753 H   0  0  0  0  0  0
   -6.7620    1.4983   11.1409 H   0  0  0  0  0  0
   -9.4089    3.2354    7.3157 H   0  0  0  0  0  0
  -10.9166    3.7880   10.6819 H   0  0  0  0  0  0
  -12.7106    4.7827   10.4154 H   0  0  0  0  0  0
  -14.4274    5.8229    9.0340 H   0  0  0  0  0  0
  -13.4246    5.4009    7.4700 H   0  0  0  0  0  0
  -10.1108    1.9382   13.4906 H   0  0  0  0  0  0
   -9.3118    0.6899   12.4757 H   0  0  0  0  0  0
  -10.7796    1.5324   11.8735 H   0  0  0  0  0  0
   -8.5131    4.6908   11.9677 H   0  0  0  0  0  0
   -9.4587    4.0589   13.3581 H   0  0  0  0  0  0
   -7.5004    2.7621   14.1006 H   0  0  0  0  0  0
   -6.5547    3.3941   12.7103 H   0  0  0  0  0  0
   -6.0781    6.6487   13.9769 H   0  0  0  0  0  0
   -7.0359    6.1035   12.5583 H   0  0  0  0  0  0
   -5.4382    5.3584   12.9033 H   0  0  0  0  0  0
   -5.8520    5.2993   15.8742 H   0  0  0  0  0  0
   -5.1997    3.9345   14.9055 H   0  0  0  0  0  0
   -6.6303    3.6827   15.9622 H   0  0  0  0  0  0
   -3.6231    1.2814    8.6245 H   0  0  0  0  0  0
   -4.4123    2.4239    9.7640 H   0  0  0  0  0  0
   -4.5871    2.6588    7.9917 H   0  0  0  0  0  0
   -7.9460    5.1659   14.5868 H   0  0  0  0  0  0
  1  2  1  0  0  0
  1 38  1  0  0  0
  1 39  1  0  0  0
  1 40  1  0  0  0
  2 10  1  0  0  0
  2  3  1  0  0  0
  3  4  2  0  0  0
  3 41  1  0  0  0
  4  5  1  0  0  0
  4 11  1  0  0  0
  5 10  2  0  0  0
  5  6  1  0  0  0
  6  7  2  0  0  0
  6 42  1  0  0  0
  7  8  1  0  0  0
  7 43  1  0  0  0
  8  9  2  0  0  0
  8 44  1  0  0  0
  9 10  1  0  0  0
  9 45  1  0  0  0
 11 16  2  0  0  0
 11 12  1  0  0  0
 12 13  2  0  0  0
 13 14  1  0  0  0
 13 17  1  0  0  0
 14 15  2  0  0  0
 15 16  1  0  0  0
 15 46  1  0  0  0
 16 47  1  0  0  0
 17 18  1  0  0  0
 17 48  1  0  0  0
 18 23  2  0  0  0
 18 19  1  0  0  0
 19 20  2  0  0  0
 19 36  1  0  0  0
 20 21  1  0  0  0
 20 49  1  0  0  0
 21 22  2  0  0  0
 21 29  1  0  0  0
 22 23  1  0  0  0
 22 24  1  0  0  0
 23 50  1  0  0  0
 24 25  1  0  0  0
 24 51  1  0  0  0
 25 26  2  0  0  0
 25 27  1  0  0  0
 27 28  2  0  0  0
 27 52  1  0  0  0
 28 53  1  0  0  0
 28 54  1  0  0  0
 29 30  1  0  0  0
 29 31  1  0  0  0
 30 55  1  0  0  0
 30 56  1  0  0  0
 30 57  1  0  0  0
 31 32  1  0  0  0
 31 58  1  0  0  0
 31 59  1  0  0  0
 32 33  1  0  0  0
 32 60  1  0  0  0
 32 61  1  0  0  0
 33 34  1  0  0  0
 33 35  1  0  0  0
 33 71  1  0  0  0
 34 62  1  0  0  0
 34 63  1  0  0  0
 34 64  1  0  0  0
 35 65  1  0  0  0
 35 66  1  0  0  0
 35 67  1  0  0  0
 36 37  1  0  0  0
 37 68  1  0  0  0
 37 69  1  0  0  0
 37 70  1  0  0  0
M  CHG  1  33   1
M  END
> <s_m_source_file>
/Users/choderaj/github/choderalab/mcce-charges/mcce-charges.jchodera/epik_inhibitors/output/Osimertinib/Osimertinib-input.mol2

> <i_m_source_file_index>
1

> <r_lp_tautomer_probability>
0.999999812000036

> <r_epik_Ionization_Penalty>
  0.0101

> <r_epik_Ionization_Penalty_Charging>
  0.0095

> <r_epik_Ionization_Penalty_Neutral>
  0.0005

> <r_epik_State_Penalty>
  0.0161

> <i_epik_Tot_Q>
1

$$$$
~{N}-[2-[2-(dimethylamino)ethyl-methyl-amino]-4-methoxy-5-[[4-(1-methylindol-3-yl)pyrimidin-2-yl]amino]phenyl]prop-2-enamide
                    3D
 Structure written by MMmdl.
 70 73  0  0  1  0            999 V2000
  -11.2397    8.2942    3.0775 C   0  0  0  0  0  0
  -10.3716    7.4871    3.9075 N   0  0  0  0  0  0
   -9.7322    6.3538    3.4818 C   0  0  0  0  0  0
   -9.0005    5.8589    4.5366 C   0  0  0  0  0  0
   -9.2027    6.7245    5.6479 C   0  0  0  0  0  0
   -8.7321    6.7433    6.9759 C   0  0  0  0  0  0
   -9.1424    7.7725    7.8310 C   0  0  0  0  0  0
  -10.0056    8.7705    7.3830 C   0  0  0  0  0  0
  -10.4853    8.7726    6.0700 C   0  0  0  0  0  0
  -10.0667    7.7375    5.2264 C   0  0  0  0  0  0
   -8.2053    4.6694    4.4284 C   0  0  0  0  0  0
   -8.0637    3.9524    5.5626 N   0  0  0  0  0  0
   -7.3151    2.8396    5.4416 C   0  0  0  0  0  0
   -6.7109    2.3878    4.3261 N   0  0  0  0  0  0
   -6.8941    3.1527    3.2299 C   0  0  0  0  0  0
   -7.6382    4.3147    3.2214 C   0  0  0  0  0  0
   -7.1454    2.0639    6.6092 N   0  0  0  0  0  0
   -7.6128    2.2136    7.9282 C   0  0  0  0  0  0
   -6.8701    1.7262    9.0036 C   0  0  0  0  0  0
   -7.3450    1.8804   10.3061 C   0  0  0  0  0  0
   -8.5626    2.5218   10.5331 C   0  0  0  0  0  0
   -9.3054    3.0091    9.4577 C   0  0  0  0  0  0
   -8.8304    2.8550    8.1552 C   0  0  0  0  0  0
  -10.5273    3.6565    9.6615 N   0  0  0  0  0  0
  -11.3860    4.1981    8.6974 C   0  0  0  0  0  0
  -11.2253    4.2064    7.4827 O   0  0  0  0  0  0
  -12.5967    4.8065    9.3216 C   0  0  0  0  0  0
  -13.5385    5.3771    8.5638 C   0  0  0  0  0  0
   -9.0240    2.6667   11.8606 N   0  0  0  0  0  0
   -9.8566    1.6454   12.4612 C   0  0  0  0  0  0
   -8.6577    3.8316   12.6392 C   0  0  0  0  0  0
   -7.3730    3.6110   13.4127 C   0  0  0  0  0  0
   -7.0029    4.7637   14.1884 N   0  0  0  0  0  0
   -6.3474    5.7829   13.3541 C   0  0  0  0  0  0
   -6.1152    4.3969   15.3029 C   0  0  0  0  0  0
   -5.6781    1.0964    8.8026 O   0  0  0  0  0  0
   -4.5083    1.9117    8.7953 C   0  0  0  0  0  0
  -11.2978    7.8541    2.0711 H   0  0  0  0  0  0
  -10.8358    9.3150    3.0085 H   0  0  0  0  0  0
  -12.2454    8.3270    3.5220 H   0  0  0  0  0  0
   -9.8536    5.9989    2.4662 H   0  0  0  0  0  0
   -8.0590    5.9728    7.3411 H   0  0  0  0  0  0
   -8.7828    7.7922    8.8564 H   0  0  0  0  0  0
  -10.3114    9.5603    8.0644 H   0  0  0  0  0  0
  -11.1571    9.5522    5.7266 H   0  0  0  0  0  0
   -6.4097    2.7934    2.3281 H   0  0  0  0  0  0
   -7.7593    4.8995    2.3179 H   0  0  0  0  0  0
   -6.5444    1.1432    6.5753 H   0  0  0  0  0  0
   -6.7620    1.4983   11.1409 H   0  0  0  0  0  0
   -9.4089    3.2354    7.3157 H   0  0  0  0  0  0
  -10.9166    3.7880   10.6819 H   0  0  0  0  0  0
  -12.7106    4.7827   10.4154 H   0  0  0  0  0  0
  -14.4274    5.8229    9.0340 H   0  0  0  0  0  0
  -13.4246    5.4009    7.4700 H   0  0  0  0  0  0
  -10.1108    1.9382   13.4906 H   0  0  0  0  0  0
   -9.3118    0.6899   12.4757 H   0  0  0  0  0  0
  -10.7796    1.5324   11.8735 H   0  0  0  0  0  0
   -8.5131    4.6908   11.9677 H   0  0  0  0  0  0
   -9.4587    4.0589   13.3581 H   0  0  0  0  0  0
   -7.5004    2.7621   14.1006 H   0  0  0  0  0  0
   -6.5547    3.3941   12.7103 H   0  0  0  0  0  0
   -6.0781    6.6487   13.9769 H   0  0  0  0  0  0
   -7.0359    6.1035   12.5583 H   0  0  0  0  0  0
   -5.4382    5.3584   12.9033 H   0  0  0  0  0  0
   -5.8520    5.2993   15.8742 H   0  0  0  0  0  0
   -5.1997    3.9345   14.9055 H   0  0  0  0  0  0
   -6.6303    3.6827   15.9622 H   0  0  0  0  0  0
   -3.6231    1.2814    8.6245 H   0  0  0  0  0  0
   -4.4123    2.4239    9.7640 H   0  0  0  0  0  0
   -4.5871    2.6588    7.9917 H   0  0  0  0  0  0
  1  2  1  0  0  0
  1 38  1  0  0  0
  1 39  1  0  0  0
  1 40  1  0  0  0
  2 10  1  0  0  0
  2  3  1  0  0  0
  3  4  2  0  0  0
  3 41  1  0  0  0
  4  5  1  0  0  0
  4 11  1  0  0  0
  5 10  2  0  0  0
  5  6  1  0  0  0
  6  7  2  0  0  0
  6 42  1  0  0  0
  7  8  1  0  0  0
  7 43  1  0  0  0
  8  9  2  0  0  0
  8 44  1  0  0  0
  9 10  1  0  0  0
  9 45  1  0  0  0
 11 16  2  0  0  0
 11 12  1  0  0  0
 12 13  2  0  0  0
 13 14  1  0  0  0
 13 17  1  0  0  0
 14 15  2  0  0  0
 15 16  1  0  0  0
 15 46  1  0  0  0
 16 47  1  0  0  0
 17 18  1  0  0  0
 17 48  1  0  0  0
 18 23  2  0  0  0
 18 19  1  0  0  0
 19 20  2  0  0  0
 19 36  1  0  0  0
 20 21  1  0  0  0
 20 49  1  0  0  0
 21 22  2  0  0  0
 21 29  1  0  0  0
 22 23  1  0  0  0
 22 24  1  0  0  0
 23 50  1  0  0  0
 24 25  1  0  0  0
 24 51  1  0  0  0
 25 26  2  0  0  0
 25 27  1  0  0  0
 27 28  2  0  0  0
 27 52  1  0  0  0
 28 53  1  0  0  0
 28 54  1  0  0  0
 29 30  1  0  0  0
 29 31  1  0  0  0
 30 55  1  0  0  0
 30 56  1  0  0  0
 30 57  1  0  0  0
 31 32  1  0  0  0
 31 58  1  0  0  0
 31 59  1  0  0  0
 32 33  1  0  0  0
 32 60  1  0  0  0
 32 61  1  0  0  0
 33 34  1  0  0  0
 33 35  1  0  0  0
 34 62  1  0  0  0
 34 63  1  0  0  0
 34 64  1  0  0  0
 35 65  1  0  0  0
 35 66  1  0  0  0
 35 67  1  0  0  0
 36 37  1  0  0  0
 37 68  1  0  0  0
 37 69  1  0  0  0
 37 70  1  0  0  0
M  END
> <s_m_source_file>
/Users/choderaj/github/choderalab/mcce-charges/mcce-charges.jchodera/epik_inhibitors/output/Osimertinib/Osimertinib-input.mol2

> <i_m_source_file_index>
1

> <r_lp_tautomer_probability>
0.999999812000036

> <r_epik_Ionization_Penalty>
  2.4966

> <r_epik_Ionization_Penalty_Charging>
  0.0000

> <r_epik_Ionization_Penalty_Neutral>
  2.4966

> <r_epik_State_Penalty>
  2.2992

> <i_epik_Tot_Q>
0

$$$$
~{N}-[2-[2-(dimethylamino)ethyl-methyl-amino]-4-methoxy-5-[[4-(1-methylindol-3-yl)pyrimidin-2-yl]amino]phenyl]prop-2-enamide
                    3D
 Structure written by MMmdl.
 71 74  0  0  1  0            999 V2000
  -11.2397    8.2942    3.0775 C   0  0  0  0  0  0
  -10.3716    7.4871    3.9075 N   0  0  0  0  0  0
   -9.7322    6.3538    3.4818 C   0  0  0  0  0  0
   -9.0005    5.8589    4.5366 C   0  0  0  0  0  0
   -9.2027    6.7245    5.6479 C   0  0  0  0  0  0
   -8.7321    6.7433    6.9759 C   0  0  0  0  0  0
   -9.1424    7.7725    7.8310 C   0  0  0  0  0  0
  -10.0056    8.7705    7.3830 C   0  0  0  0  0  0
  -10.4853    8.7726    6.0700 C   0  0  0  0  0  0
  -10.0667    7.7375    5.2264 C   0  0  0  0  0  0
   -8.2053    4.6694    4.4284 C   0  0  0  0  0  0
   -8.0637    3.9524    5.5626 N   0  0  0  0  0  0
   -7.3151    2.8396    5.4416 C   0  0  0  0  0  0
   -6.7109    2.3878    4.3261 N   0  0  0  0  0  0
   -6.8941    3.1527    3.2299 C   0  0  0  0  0  0
   -7.6382    4.3147    3.2214 C   0  0  0  0  0  0
   -7.1454    2.0639    6.6092 N   0  0  0  0  0  0
   -7.6128    2.2136    7.9282 C   0  0  0  0  0  0
   -6.8701    1.7262    9.0036 C   0  0  0  0  0  0
   -7.3450    1.8804   10.3061 C   0  0  0  0  0  0
   -8.5626    2.5218   10.5331 C   0  0  0  0  0  0
   -9.3054    3.0091    9.4577 C   0  0  0  0  0  0
   -8.8304    2.8550    8.1552 C   0  0  0  0  0  0
  -10.5273    3.6565    9.6615 N   0  0  0  0  0  0
  -11.3860    4.1981    8.6974 C   0  0  0  0  0  0
  -11.2253    4.2064    7.4827 O   0  0  0  0  0  0
  -12.5967    4.8065    9.3216 C   0  0  0  0  0  0
  -13.5385    5.3771    8.5638 C   0  0  0  0  0  0
   -9.0240    2.6667   11.8606 N   0  3  1  0  0  0
   -9.8566    1.6454   12.4612 C   0  0  0  0  0  0
   -8.6577    3.8316   12.6392 C   0  0  0  0  0  0
   -7.3730    3.6110   13.4127 C   0  0  0  0  0  0
   -7.0029    4.7637   14.1884 N   0  0  0  0  0  0
   -6.3474    5.7829   13.3541 C   0  0  0  0  0  0
   -6.1152    4.3969   15.3029 C   0  0  0  0  0  0
   -5.6781    1.0964    8.8026 O   0  0  0  0  0  0
   -4.5083    1.9117    8.7953 C   0  0  0  0  0  0
  -11.2978    7.8541    2.0711 H   0  0  0  0  0  0
  -10.8358    9.3150    3.0085 H   0  0  0  0  0  0
  -12.2454    8.3270    3.5220 H   0  0  0  0  0  0
   -9.8536    5.9989    2.4662 H   0  0  0  0  0  0
   -8.0590    5.9728    7.3411 H   0  0  0  0  0  0
   -8.7828    7.7922    8.8564 H   0  0  0  0  0  0
  -10.3114    9.5603    8.0644 H   0  0  0  0  0  0
  -11.1571    9.5522    5.7266 H   0  0  0  0  0  0
   -6.4097    2.7934    2.3281 H   0  0  0  0  0  0
   -7.7593    4.8995    2.3179 H   0  0  0  0  0  0
   -6.5444    1.1432    6.5753 H   0  0  0  0  0  0
   -6.7620    1.4983   11.1409 H   0  0  0  0  0  0
   -9.4089    3.2354    7.3157 H   0  0  0  0  0  0
  -10.9166    3.7880   10.6819 H   0  0  0  0  0  0
  -12.7106    4.7827   10.4154 H   0  0  0  0  0  0
  -14.4274    5.8229    9.0340 H   0  0  0  0  0  0
  -13.4246    5.4009    7.4700 H   0  0  0  0  0  0
  -10.1108    1.9382   13.4906 H   0  0  0  0  0  0
   -9.3118    0.6899   12.4757 H   0  0  0  0  0  0
  -10.7796    1.5324   11.8735 H   0  0  0  0  0  0
   -8.5131    4.6908   11.9677 H   0  0  0  0  0  0
   -9.4587    4.0589   13.3581 H   0  0  0  0  0  0
   -7.5004    2.7621   14.1006 H   0  0  0  0  0  0
   -6.5547    3.3941   12.7103 H   0  0  0  0  0  0
   -6.0781    6.6487   13.9769 H   0  0  0  0  0  0
   -7.0359    6.1035   12.5583 H   0  0  0  0  0  0
   -5.4382    5.3584   12.9033 H   0  0  0  0  0  0
   -5.8520    5.2993   15.8742 H   0  0  0  0  0  0
   -5.1997    3.9345   14.9055 H   0  0  0  0  0  0
   -6.6303    3.6827   15.9622 H   0  0  0  0  0  0
   -3.6231    1.2814    8.6245 H   0  0  0  0  0  0
   -4.4123    2.4239    9.7640 H   0  0  0  0  0  0
   -4.5871    2.6588    7.9917 H   0  0  0  0  0  0
   -9.9228    3.1826   11.4919 H   0  0  0  0  0  0
  1  2  1  0  0  0
  1 38  1  0  0  0
  1 39  1  0  0  0
  1 40  1  0  0  0
  2 10  1  0  0  0
  2  3  1  0  0  0
  3  4  2  0  0  0
  3 41  1  0  0  0
  4  5  1  0  0  0
  4 11  1  0  0  0
  5 10  2  0  0  0
  5  6  1  0  0  0
  6  7  2  0  0  0
  6 42  1  0  0  0
  7  8  1  0  0  0
  7 43  1  0  0  0
  8  9  2  0  0  0
  8 44  1  0  0  0
  9 10  1  0  0  0
  9 45  1  0  0  0
 11 16  2  0  0  0
 11 12  1  0  0  0
 12 13  2  0  0  0
 13 14  1  0  0  0
 13 17  1  0  0  0
 14 15  2  0  0  0
 15 16  1  0  0  0
 15 46  1  0  0  0
 16 47  1  0  0  0
 17 18  1  0  0  0
 17 48  1  0  0  0
 18 23  2  0  0  0
 18 19  1  0  0  0
 19 20  2  0  0  0
 19 36  1  0  0  0
 20 21  1  0  0  0
 20 49  1  0  0  0
 21 22  2  0  0  0
 21 29  1  0  0  0
 22 23  1  0  0  0
 22 24  1  0  0  0
 23 50  1  0  0  0
 24 25  1  0  0  0
 24 51  1  0  0  0
 25 26  2  0  0  0
 25 27  1  0  0  0
 27 28  2  0  0  0
 27 52  1  0  0  0
 28 53  1  0  0  0
 28 54  1  0  0  0
 29 30  1  0  0  0
 29 31  1  0  0  0
 29 71  1  0  0  0
 30 55  1  0  0  0
 30 56  1  0  0  0
 30 57  1  0  0  0
 31 32  1  0  0  0
 31 58  1  0  0  0
 31 59  1  0  0  0
 32 33  1  0  0  0
 32 60  1  0  0  0
 32 61  1  0  0  0
 33 34  1  0  0  0
 33 35  1  0  0  0
 34 62  1  0  0  0
 34 63  1  0  0  0
 34 64  1  0  0  0
 35 65  1  0  0  0
 35 66  1  0  0  0
 35 67  1  0  0  0
 36 37  1  0  0  0
 37 68  1  0  0  0
 37 69  1  0  0  0
 37 70  1  0  0  0
M  CHG  1  29   1
M  END
> <s_m_source_file>
/Users/choderaj/github/choderalab/mcce-charges/mcce-charges.jchodera/epik_inhibitors/output/Osimertinib/Osimertinib-input.mol2

> <i_m_source_file_index>
1

> <r_epik_Ionization_Penalty>
  1.5583

> <r_epik_Ionization_Penalty_Charging>
  1.5456

> <r_epik_Ionization_Penalty_Neutral>
  0.0127

> <r_epik_State_Penalty>
  3.3096

> <i_epik_Tot_Q>
1

$$$$
~{N}-[2-[2-(dimethylamino)ethyl-methyl-amino]-4-methoxy-5-[[4-(1-methylindol-3-yl)pyrimidin-2-yl]amino]phenyl]prop-2-enamide
                    3D
 Structure written by MMmdl.
 71 74  0  0  1  0            999 V2000
  -11.2397    8.2942    3.0775 C   0  0  0  0  0  0
  -10.3716    7.4871    3.9075 N   0  0  0  0  0  0
   -9.7322    6.3538    3.4818 C   0  0  0  0  0  0
   -9.0005    5.8589    4.5366 C   0  0  0  0  0  0
   -9.2027    6.7245    5.6479 C   0  0  0  0  0  0
   -8.7321    6.7433    6.9759 C   0  0  0  0  0  0
   -9.1424    7.7725    7.8310 C   0  0  0  0  0  0
  -10.0056    8.7705    7.3830 C   0  0  0  0  0  0
  -10.4853    8.7726    6.0700 C   0  0  0  0  0  0
  -10.0667    7.7375    5.2264 C   0  0  0  0  0  0
   -8.2053    4.6694    4.4284 C   0  0  0  0  0  0
   -8.0637    3.9524    5.5626 N   0  0  0  0  0  0
   -7.3151    2.8396    5.4416 C   0  0  0  0  0  0
   -6.7109    2.3878    4.3261 N   0  0  0  0  0  0
   -6.8941    3.1527    3.2299 C   0  0  0  0  0  0
   -7.6382    4.3147    3.2214 C   0  0  0  0  0  0
   -7.1454    2.0639    6.6092 N   0  0  0  0  0  0
   -7.6128    2.2136    7.9282 C   0  0  0  0  0  0
   -6.8701    1.7262    9.0036 C   0  0  0  0  0  0
   -7.3450    1.8804   10.3061 C   0  0  0  0  0  0
   -8.5626    2.5218   10.5331 C   0  0  0  0  0  0
   -9.3054    3.0091    9.4577 C   0  0  0  0  0  0
   -8.8304    2.8550    8.1552 C   0  0  0  0  0  0
  -10.5273    3.6565    9.6615 N   0  5  0  0  0  0
  -11.3860    4.1981    8.6974 C   0  0  0  0  0  0
  -11.2253    4.2064    7.4827 O   0  3  0  0  0  0
  -12.5967    4.8065    9.3216 C   0  0  0  0  0  0
  -13.5385    5.3771    8.5638 C   0  0  0  0  0  0
   -9.0240    2.6667   11.8606 N   0  0  0  0  0  0
   -9.8566    1.6454   12.4612 C   0  0  0  0  0  0
   -8.6577    3.8316   12.6392 C   0  0  0  0  0  0
   -7.3730    3.6110   13.4127 C   0  0  0  0  0  0
   -7.0029    4.7637   14.1884 N   0  3  0  0  0  0
   -6.3474    5.7829   13.3541 C   0  0  0  0  0  0
   -6.1152    4.3969   15.3029 C   0  0  0  0  0  0
   -5.6781    1.0964    8.8026 O   0  0  0  0  0  0
   -4.5083    1.9117    8.7953 C   0  0  0  0  0  0
  -11.2978    7.8541    2.0711 H   0  0  0  0  0  0
  -10.8358    9.3150    3.0085 H   0  0  0  0  0  0
  -12.2454    8.3270    3.5220 H   0  0  0  0  0  0
   -9.8536    5.9989    2.4662 H   0  0  0  0  0  0
   -8.0590    5.9728    7.3411 H   0  0  0  0  0  0
   -8.7828    7.7922    8.8564 H   0  0  0  0  0  0
  -10.3114    9.5603    8.0644 H   0  0  0  0  0  0
  -11.1571    9.5522    5.7266 H   0  0  0  0  0  0
   -6.4097    2.7934    2.3281 H   0  0  0  0  0  0
   -7.7593    4.8995    2.3179 H   0  0  0  0  0  0
   -6.5444    1.1432    6.5753 H   0  0  0  0  0  0
   -6.7620    1.4983   11.1409 H   0  0  0  0  0  0
   -9.4089    3.2354    7.3157 H   0  0  0  0  0  0
  -12.7106    4.7827   10.4154 H   0  0  0  0  0  0
  -14.4274    5.8229    9.0340 H   0  0  0  0  0  0
  -13.4246    5.4009    7.4700 H   0  0  0  0  0  0
  -10.1108    1.9382   13.4906 H   0  0  0  0  0  0
   -9.3118    0.6899   12.4757 H   0  0  0  0  0  0
  -10.7796    1.5324   11.8735 H   0  0  0  0  0  0
   -8.5131    4.6908   11.9677 H   0  0  0  0  0  0
   -9.4587    4.0589   13.3581 H   0  0  0  0  0  0
   -7.5004    2.7621   14.1006 H   0  0  0  0  0  0
   -6.5547    3.3941   12.7103 H   0  0  0  0  0  0
   -6.0781    6.6487   13.9769 H   0  0  0  0  0  0
   -7.0359    6.1035   12.5583 H   0  0  0  0  0  0
   -5.4382    5.3584   12.9033 H   0  0  0  0  0  0
   -5.8520    5.2993   15.8742 H   0  0  0  0  0  0
   -5.1997    3.9345   14.9055 H   0  0  0  0  0  0
   -6.6303    3.6827   15.9622 H   0  0  0  0  0  0
   -3.6231    1.2814    8.6245 H   0  0  0  0  0  0
   -4.4123    2.4239    9.7640 H   0  0  0  0  0  0
   -4.5871    2.6588    7.9917 H   0  0  0  0  0  0
   -7.9460    5.1659   14.5868 H   0  0  0  0  0  0
  -11.9817    4.6680    6.8310 H   0  0  0  0  0  0
  1  2  1  0  0  0
  1 38  1  0  0  0
  1 39  1  0  0  0
  1 40  1  0  0  0
  2 10  1  0  0  0
  2  3  1  0  0  0
  3  4  2  0  0  0
  3 41  1  0  0  0
  4  5  1  0  0  0
  4 11  1  0  0  0
  5 10  2  0  0  0
  5  6  1  0  0  0
  6  7  2  0  0  0
  6 42  1  0  0  0
  7  8  1  0  0  0
  7 43  1  0  0  0
  8  9  2  0  0  0
  8 44  1  0  0  0
  9 10  1  0  0  0
  9 45  1  0  0  0
 11 16  2  0  0  0
 11 12  1  0  0  0
 12 13  2  0  0  0
 13 14  1  0  0  0
 13 17  1  0  0  0
 14 15  2  0  0  0
 15 16  1  0  0  0
 15 46  1  0  0  0
 16 47  1  0  0  0
 17 18  1  0  0  0
 17 48  1  0  0  0
 18 23  2  0  0  0
 18 19  1  0  0  0
 19 20  2  0  0  0
 19 36  1  0  0  0
 20 21  1  0  0  0
 20 49  1  0  0  0
 21 22  2  0  0  0
 21 29  1  0  0  0
 22 23  1  0  0  0
 22 24  1  0  0  0
 23 50  1  0  0  0
 24 25  1  0  0  0
 25 26  2  0  0  0
 25 27  1  0  0  0
 26 71  1  0  0  0
 27 28  2  0  0  0
 27 51  1  0  0  0
 28 52  1  0  0  0
 28 53  1  0  0  0
 29 30  1  0  0  0
 29 31  1  0  0  0
 30 54  1  0  0  0
 30 55  1  0  0  0
 30 56  1  0  0  0
 31 32  1  0  0  0
 31 57  1  0  0  0
 31 58  1  0  0  0
 32 33  1  0  0  0
 32 59  1  0  0  0
 32 60  1  0  0  0
 33 34  1  0  0  0
 33 35  1  0  0  0
 33 70  1  0  0  0
 34 61  1  0  0  0
 34 62  1  0  0  0
 34 63  1  0  0  0
 35 64  1  0  0  0
 35 65  1  0  0  0
 35 66  1  0  0  0
 36 37  1  0  0  0
 37 67  1  0  0  0
 37 68  1  0  0  0
 37 69  1  0  0  0
M  CHG  3  24  -1  26   1  33   1
M  END
> <s_m_source_file>
/Users/choderaj/github/choderalab/mcce-charges/mcce-charges.jchodera/epik_inhibitors/output/Osimertinib/Osimertinib-input.mol2

> <i_m_source_file_index>
1

> <r_epik_Ionization_Penalty>
  0.1053

> <r_epik_Ionization_Penalty_Charging>
  0.0279

> <r_epik_Ionization_Penalty_Neutral>
  0.0774

> <r_epik_State_Penalty>
  3.8935

> <i_epik_Tot_Q>
1

$$$$
~{N}-[2-[2-(dimethylamino)ethyl-methyl-amino]-4-methoxy-5-[[4-(1-methylindol-3-yl)pyrimidin-2-yl]amino]phenyl]prop-2-enamide
                    3D
 Structure written by MMmdl.
 71 74  0  0  1  0            999 V2000
  -11.2397    8.2942    3.0775 C   0  0  0  0  0  0
  -10.3716    7.4871    3.9075 N   0  0  0  0  0  0
   -9.7322    6.3538    3.4818 C   0  0  0  0  0  0
   -9.0005    5.8589    4.5366 C   0  0  0  0  0  0
   -9.2027    6.7245    5.6479 C   0  0  0  0  0  0
   -8.7321    6.7433    6.9759 C   0  0  0  0  0  0
   -9.1424    7.7725    7.8310 C   0  0  0  0  0  0
  -10.0056    8.7705    7.3830 C   0  0  0  0  0  0
  -10.4853    8.7726    6.0700 C   0  0  0  0  0  0
  -10.0667    7.7375    5.2264 C   0  0  0  0  0  0
   -8.2053    4.6694    4.4284 C   0  0  0  0  0  0
   -8.0637    3.9524    5.5626 N   0  0  0  0  0  0
   -7.3151    2.8396    5.4416 C   0  0  0  0  0  0
   -6.7109    2.3878    4.3261 N   0  0  0  0  0  0
   -6.8941    3.1527    3.2299 C   0  0  0  0  0  0
   -7.6382    4.3147    3.2214 C   0  0  0  0  0  0
   -7.1454    2.0639    6.6092 N   0  0  0  0  0  0
   -7.6128    2.2136    7.9282 C   0  0  0  0  0  0
   -6.8701    1.7262    9.0036 C   0  0  0  0  0  0
   -7.3450    1.8804   10.3061 C   0  0  0  0  0  0
   -8.5626    2.5218   10.5331 C   0  0  0  0  0  0
   -9.3054    3.0091    9.4577 C   0  0  0  0  0  0
   -8.8304    2.8550    8.1552 C   0  0  0  0  0  0
  -10.5273    3.6565    9.6615 N   0  5  0  0  0  0
  -11.3860    4.1981    8.6974 C   0  0  0  0  0  0
  -11.2253    4.2064    7.4827 O   0  3  0  0  0  0
  -12.5967    4.8065    9.3216 C   0  0  0  0  0  0
  -13.5385    5.3771    8.5638 C   0  0  0  0  0  0
   -9.0240    2.6667   11.8606 N   0  3  1  0  0  0
   -9.8566    1.6454   12.4612 C   0  0  0  0  0  0
   -8.6577    3.8316   12.6392 C   0  0  0  0  0  0
   -7.3730    3.6110   13.4127 C   0  0  0  0  0  0
   -7.0029    4.7637   14.1884 N   0  0  0  0  0  0
   -6.3474    5.7829   13.3541 C   0  0  0  0  0  0
   -6.1152    4.3969   15.3029 C   0  0  0  0  0  0
   -5.6781    1.0964    8.8026 O   0  0  0  0  0  0
   -4.5083    1.9117    8.7953 C   0  0  0  0  0  0
  -11.2978    7.8541    2.0711 H   0  0  0  0  0  0
  -10.8358    9.3150    3.0085 H   0  0  0  0  0  0
  -12.2454    8.3270    3.5220 H   0  0  0  0  0  0
   -9.8536    5.9989    2.4662 H   0  0  0  0  0  0
   -8.0590    5.9728    7.3411 H   0  0  0  0  0  0
   -8.7828    7.7922    8.8564 H   0  0  0  0  0  0
  -10.3114    9.5603    8.0644 H   0  0  0  0  0  0
  -11.1571    9.5522    5.7266 H   0  0  0  0  0  0
   -6.4097    2.7934    2.3281 H   0  0  0  0  0  0
   -7.7593    4.8995    2.3179 H   0  0  0  0  0  0
   -6.5444    1.1432    6.5753 H   0  0  0  0  0  0
   -6.7620    1.4983   11.1409 H   0  0  0  0  0  0
   -9.4089    3.2354    7.3157 H   0  0  0  0  0  0
  -12.7106    4.7827   10.4154 H   0  0  0  0  0  0
  -14.4274    5.8229    9.0340 H   0  0  0  0  0  0
  -13.4246    5.4009    7.4700 H   0  0  0  0  0  0
  -10.1108    1.9382   13.4906 H   0  0  0  0  0  0
   -9.3118    0.6899   12.4757 H   0  0  0  0  0  0
  -10.7796    1.5324   11.8735 H   0  0  0  0  0  0
   -8.5131    4.6908   11.9677 H   0  0  0  0  0  0
   -9.4587    4.0589   13.3581 H   0  0  0  0  0  0
   -7.5004    2.7621   14.1006 H   0  0  0  0  0  0
   -6.5547    3.3941   12.7103 H   0  0  0  0  0  0
   -6.0781    6.6487   13.9769 H   0  0  0  0  0  0
   -7.0359    6.1035   12.5583 H   0  0  0  0  0  0
   -5.4382    5.3584   12.9033 H   0  0  0  0  0  0
   -5.8520    5.2993   15.8742 H   0  0  0  0  0  0
   -5.1997    3.9345   14.9055 H   0  0  0  0  0  0
   -6.6303    3.6827   15.9622 H   0  0  0  0  0  0
   -3.6231    1.2814    8.6245 H   0  0  0  0  0  0
   -4.4123    2.4239    9.7640 H   0  0  0  0  0  0
   -4.5871    2.6588    7.9917 H   0  0  0  0  0  0
  -11.9817    4.6680    6.8310 H   0  0  0  0  0  0
   -9.9228    3.1826   11.4919 H   0  0  0  0  0  0
  1  2  1  0  0  0
  1 38  1  0  0  0
  1 39  1  0  0  0
  1 40  1  0  0  0
  2 10  1  0  0  0
  2  3  1  0  0  0
  3  4  2  0  0  0
  3 41  1  0  0  0
  4  5  1  0  0  0
  4 11  1  0  0  0
  5 10  2  0  0  0
  5  6  1  0  0  0
  6  7  2  0  0  0
  6 42  1  0  0  0
  7  8  1  0  0  0
  7 43  1  0  0  0
  8  9  2  0  0  0
  8 44  1  0  0  0
  9 10  1  0  0  0
  9 45  1  0  0  0
 11 16  2  0  0  0
 11 12  1  0  0  0
 12 13  2  0  0  0
 13 14  1  0  0  0
 13 17  1  0  0  0
 14 15  2  0  0  0
 15 16  1  0  0  0
 15 46  1  0  0  0
 16 47  1  0  0  0
 17 18  1  0  0  0
 17 48  1  0  0  0
 18 23  2  0  0  0
 18 19  1  0  0  0
 19 20  2  0  0  0
 19 36  1  0  0  0
 20 21  1  0  0  0
 20 49  1  0  0  0
 21 22  2  0  0  0
 21 29  1  0  0  0
 22 23  1  0  0  0
 22 24  1  0  0  0
 23 50  1  0  0  0
 24 25  1  0  0  0
 25 26  2  0  0  0
 25 27  1  0  0  0
 26 70  1  0  0  0
 27 28  2  0  0  0
 27 51  1  0  0  0
 28 52  1  0  0  0
 28 53  1  0  0  0
 29 30  1  0  0  0
 29 31  1  0  0  0
 29 71  1  0  0  0
 30 54  1  0  0  0
 30 55  1  0  0  0
 30 56  1  0  0  0
 31 32  1  0  0  0
 31 57  1  0  0  0
 31 58  1  0  0  0
 32 33  1  0  0  0
 32 59  1  0  0  0
 32 60  1  0  0  0
 33 34  1  0  0  0
 33 35  1  0  0  0
 34 61  1  0  0  0
 34 62  1  0  0  0
 34 63  1  0  0  0
 35 64  1  0  0  0
 35 65  1  0  0  0
 35 66  1  0  0  0
 36 37  1  0  0  0
 37 67  1  0  0  0
 37 68  1  0  0  0
 37 69  1  0  0  0
M  CHG  3  24  -1  26   1  29   1
M  END
> <s_m_source_file>
/Users/choderaj/github/choderalab/mcce-charges/mcce-charges.jchodera/epik_inhibitors/output/Osimertinib/Osimertinib-input.mol2

> <i_m_source_file_index>
1

> <r_epik_Ionization_Penalty>
  0.0410

> <r_epik_Ionization_Penalty_Charging>
  0.0290

> <r_epik_Ionization_Penalty_Neutral>
  0.0120

> <r_epik_State_Penalty>
  4.4313

> <i_epik_Tot_Q>
1

$$$$
~{N}-[2-[2-(dimethylamino)ethyl-methyl-amino]-4-methoxy-5-[[4-(1-methylindol-3-yl)pyrimidin-2-yl]amino]phenyl]prop-2-enamide
                    3D
 Structure written by MMmdl.
 72 75  0  0  1  0            999 V2000
  -11.2397    8.2942    3.0775 C   0  0  0  0  0  0
  -10.3716    7.4871    3.9075 N   0  0  0  0  0  0
   -9.7322    6.3538    3.4818 C   0  0  0  0  0  0
   -9.0005    5.8589    4.5366 C   0  0  0  0  0  0
   -9.2027    6.7245    5.6479 C   0  0  0  0  0  0
   -8.7321    6.7433    6.9759 C   0  0  0  0  0  0
   -9.1424    7.7725    7.8310 C   0  0  0  0  0  0
  -10.0056    8.7705    7.3830 C   0  0  0  0  0  0
  -10.4853    8.7726    6.0700 C   0  0  0  0  0  0
  -10.0667    7.7375    5.2264 C   0  0  0  0  0  0
   -8.2053    4.6694    4.4284 C   0  0  0  0  0  0
   -8.0637    3.9524    5.5626 N   0  0  0  0  0  0
   -7.3151    2.8396    5.4416 C   0  0  0  0  0  0
   -6.7109    2.3878    4.3261 N   0  0  0  0  0  0
   -6.8941    3.1527    3.2299 C   0  0  0  0  0  0
   -7.6382    4.3147    3.2214 C   0  0  0  0  0  0
   -7.1454    2.0639    6.6092 N   0  0  0  0  0  0
   -7.6128    2.2136    7.9282 C   0  0  0  0  0  0
   -6.8701    1.7262    9.0036 C   0  0  0  0  0  0
   -7.3450    1.8804   10.3061 C   0  0  0  0  0  0
   -8.5626    2.5218   10.5331 C   0  0  0  0  0  0
   -9.3054    3.0091    9.4577 C   0  0  0  0  0  0
   -8.8304    2.8550    8.1552 C   0  0  0  0  0  0
  -10.5273    3.6565    9.6615 N   0  0  0  0  0  0
  -11.3860    4.1981    8.6974 C   0  0  0  0  0  0
  -11.2253    4.2064    7.4827 O   0  3  0  0  0  0
  -12.5967    4.8065    9.3216 C   0  0  0  0  0  0
  -13.5385    5.3771    8.5638 C   0  0  0  0  0  0
   -9.0240    2.6667   11.8606 N   0  0  0  0  0  0
   -9.8566    1.6454   12.4612 C   0  0  0  0  0  0
   -8.6577    3.8316   12.6392 C   0  0  0  0  0  0
   -7.3730    3.6110   13.4127 C   0  0  0  0  0  0
   -7.0029    4.7637   14.1884 N   0  3  0  0  0  0
   -6.3474    5.7829   13.3541 C   0  0  0  0  0  0
   -6.1152    4.3969   15.3029 C   0  0  0  0  0  0
   -5.6781    1.0964    8.8026 O   0  0  0  0  0  0
   -4.5083    1.9117    8.7953 C   0  0  0  0  0  0
  -11.2978    7.8541    2.0711 H   0  0  0  0  0  0
  -10.8358    9.3150    3.0085 H   0  0  0  0  0  0
  -12.2454    8.3270    3.5220 H   0  0  0  0  0  0
   -9.8536    5.9989    2.4662 H   0  0  0  0  0  0
   -8.0590    5.9728    7.3411 H   0  0  0  0  0  0
   -8.7828    7.7922    8.8564 H   0  0  0  0  0  0
  -10.3114    9.5603    8.0644 H   0  0  0  0  0  0
  -11.1571    9.5522    5.7266 H   0  0  0  0  0  0
   -6.4097    2.7934    2.3281 H   0  0  0  0  0  0
   -7.7593    4.8995    2.3179 H   0  0  0  0  0  0
   -6.5444    1.1432    6.5753 H   0  0  0  0  0  0
   -6.7620    1.4983   11.1409 H   0  0  0  0  0  0
   -9.4089    3.2354    7.3157 H   0  0  0  0  0  0
  -10.9166    3.7880   10.6819 H   0  0  0  0  0  0
  -12.7106    4.7827   10.4154 H   0  0  0  0  0  0
  -14.4274    5.8229    9.0340 H   0  0  0  0  0  0
  -13.4246    5.4009    7.4700 H   0  0  0  0  0  0
  -10.1108    1.9382   13.4906 H   0  0  0  0  0  0
   -9.3118    0.6899   12.4757 H   0  0  0  0  0  0
  -10.7796    1.5324   11.8735 H   0  0  0  0  0  0
   -8.5131    4.6908   11.9677 H   0  0  0  0  0  0
   -9.4587    4.0589   13.3581 H   0  0  0  0  0  0
   -7.5004    2.7621   14.1006 H   0  0  0  0  0  0
   -6.5547    3.3941   12.7103 H   0  0  0  0  0  0
   -6.0781    6.6487   13.9769 H   0  0  0  0  0  0
   -7.0359    6.1035   12.5583 H   0  0  0  0  0  0
   -5.4382    5.3584   12.9033 H   0  0  0  0  0  0
   -5.8520    5.2993   15.8742 H   0  0  0  0  0  0
   -5.1997    3.9345   14.9055 H   0  0  0  0  0  0
   -6.6303    3.6827   15.9622 H   0  0  0  0  0  0
   -3.6231    1.2814    8.6245 H   0  0  0  0  0  0
   -4.4123    2.4239    9.7640 H   0  0  0  0  0  0
   -4.5871    2.6588    7.9917 H   0  0  0  0  0  0
   -7.9460    5.1659   14.5868 H   0  0  0  0  0  0
  -11.9817    4.6680    6.8310 H   0  0  0  0  0  0
  1  2  1  0  0  0
  1 38  1  0  0  0
  1 39  1  0  0  0
  1 40  1  0  0  0
  2 10  1  0  0  0
  2  3  1  0  0  0
  3  4  2  0  0  0
  3 41  1  0  0  0
  4  5  1  0  0  0
  4 11  1  0  0  0
  5 10  2  0  0  0
  5  6  1  0  0  0
  6  7  2  0  0  0
  6 42  1  0  0  0
  7  8  1  0  0  0
  7 43  1  0  0  0
  8  9  2  0  0  0
  8 44  1  0  0  0
  9 10  1  0  0  0
  9 45  1  0  0  0
 11 16  2  0  0  0
 11 12  1  0  0  0
 12 13  2  0  0  0
 13 14  1  0  0  0
 13 17  1  0  0  0
 14 15  2  0  0  0
 15 16  1  0  0  0
 15 46  1  0  0  0
 16 47  1  0  0  0
 17 18  1  0  0  0
 17 48  1  0  0  0
 18 23  2  0  0  0
 18 19  1  0  0  0
 19 20  2  0  0  0
 19 36  1  0  0  0
 20 21  1  0  0  0
 20 49  1  0  0  0
 21 22  2  0  0  0
 21 29  1  0  0  0
 22 23  1  0  0  0
 22 24  1  0  0  0
 23 50  1  0  0  0
 24 25  1  0  0  0
 24 51  1  0  0  0
 25 26  2  0  0  0
 25 27  1  0  0  0
 26 72  1  0  0  0
 27 28  2  0  0  0
 27 52  1  0  0  0
 28 53  1  0  0  0
 28 54  1  0  0  0
 29 30  1  0  0  0
 29 31  1  0  0  0
 30 55  1  0  0  0
 30 56  1  0  0  0
 30 57  1  0  0  0
 31 32  1  0  0  0
 31 58  1  0  0  0
 31 59  1  0  0  0
 32 33  1  0  0  0
 32 60  1  0  0  0
 32 61  1  0  0  0
 33 34  1  0  0  0
 33 35  1  0  0  0
 33 71  1  0  0  0
 34 62  1  0  0  0
 34 63  1  0  0  0
 34 64  1  0  0  0
 35 65  1  0  0  0
 35 66  1  0  0  0
 35 67  1  0  0  0
 36 37  1  0  0  0
 37 68  1  0  0  0
 37 69  1  0  0  0
 37 70  1  0  0  0
M  CHG  2  26   1  33   1
M  END
> <s_m_source_file>
/Users/choderaj/github/choderalab/mcce-charges/mcce-charges.jchodera/epik_inhibitors/output/Osimertinib/Osimertinib-input.mol2

> <i_m_source_file_index>
1

> <r_epik_Ionization_Penalty>
  6.4717

> <r_epik_Ionization_Penalty_Charging>
  4.4028

> <r_epik_Ionization_Penalty_Neutral>
  2.0689

> <r_epik_State_Penalty>
  4.9721

> <i_epik_Tot_Q>
2

$$$$
~{N}-[2-[2-(dimethylamino)ethyl-methyl-amino]-4-methoxy-5-[[4-(1-methylindol-3-yl)pyrimidin-2-yl]amino]phenyl]prop-2-enamide
                    3D
 Structure written by MMmdl.
 72 75  0  0  1  0            999 V2000
  -11.2397    8.2942    3.0775 C   0  0  0  0  0  0
  -10.3716    7.4871    3.9075 N   0  0  0  0  0  0
   -9.7322    6.3538    3.4818 C   0  0  0  0  0  0
   -9.0005    5.8589    4.5366 C   0  0  0  0  0  0
   -9.2027    6.7245    5.6479 C   0  0  0  0  0  0
   -8.7321    6.7433    6.9759 C   0  0  0  0  0  0
   -9.1424    7.7725    7.8310 C   0  0  0  0  0  0
  -10.0056    8.7705    7.3830 C   0  0  0  0  0  0
  -10.4853    8.7726    6.0700 C   0  0  0  0  0  0
  -10.0667    7.7375    5.2264 C   0  0  0  0  0  0
   -8.2053    4.6694    4.4284 C   0  0  0  0  0  0
   -8.0637    3.9524    5.5626 N   0  0  0  0  0  0
   -7.3151    2.8396    5.4416 C   0  0  0  0  0  0
   -6.7109    2.3878    4.3261 N   0  0  0  0  0  0
   -6.8941    3.1527    3.2299 C   0  0  0  0  0  0
   -7.6382    4.3147    3.2214 C   0  0  0  0  0  0
   -7.1454    2.0639    6.6092 N   0  0  0  0  0  0
   -7.6128    2.2136    7.9282 C   0  0  0  0  0  0
   -6.8701    1.7262    9.0036 C   0  0  0  0  0  0
   -7.3450    1.8804   10.3061 C   0  0  0  0  0  0
   -8.5626    2.5218   10.5331 C   0  0  0  0  0  0
   -9.3054    3.0091    9.4577 C   0  0  0  0  0  0
   -8.8304    2.8550    8.1552 C   0  0  0  0  0  0
  -10.5273    3.6565    9.6615 N   0  0  0  0  0  0
  -11.3860    4.1981    8.6974 C   0  0  0  0  0  0
  -11.2253    4.2064    7.4827 O   0  0  0  0  0  0
  -12.5967    4.8065    9.3216 C   0  0  0  0  0  0
  -13.5385    5.3771    8.5638 C   0  0  0  0  0  0
   -9.0240    2.6667   11.8606 N   0  3  1  0  0  0
   -9.8566    1.6454   12.4612 C   0  0  0  0  0  0
   -8.6577    3.8316   12.6392 C   0  0  0  0  0  0
   -7.3730    3.6110   13.4127 C   0  0  0  0  0  0
   -7.0029    4.7637   14.1884 N   0  3  0  0  0  0
   -6.3474    5.7829   13.3541 C   0  0  0  0  0  0
   -6.1152    4.3969   15.3029 C   0  0  0  0  0  0
   -5.6781    1.0964    8.8026 O   0  0  0  0  0  0
   -4.5083    1.9117    8.7953 C   0  0  0  0  0  0
  -11.2978    7.8541    2.0711 H   0  0  0  0  0  0
  -10.8358    9.3150    3.0085 H   0  0  0  0  0  0
  -12.2454    8.3270    3.5220 H   0  0  0  0  0  0
   -9.8536    5.9989    2.4662 H   0  0  0  0  0  0
   -8.0590    5.9728    7.3411 H   0  0  0  0  0  0
   -8.7828    7.7922    8.8564 H   0  0  0  0  0  0
  -10.3114    9.5603    8.0644 H   0  0  0  0  0  0
  -11.1571    9.5522    5.7266 H   0  0  0  0  0  0
   -6.4097    2.7934    2.3281 H   0  0  0  0  0  0
   -7.7593    4.8995    2.3179 H   0  0  0  0  0  0
   -6.5444    1.1432    6.5753 H   0  0  0  0  0  0
   -6.7620    1.4983   11.1409 H   0  0  0  0  0  0
   -9.4089    3.2354    7.3157 H   0  0  0  0  0  0
  -10.9166    3.7880   10.6819 H   0  0  0  0  0  0
  -12.7106    4.7827   10.4154 H   0  0  0  0  0  0
  -14.4274    5.8229    9.0340 H   0  0  0  0  0  0
  -13.4246    5.4009    7.4700 H   0  0  0  0  0  0
  -10.1108    1.9382   13.4906 H   0  0  0  0  0  0
   -9.3118    0.6899   12.4757 H   0  0  0  0  0  0
  -10.7796    1.5324   11.8735 H   0  0  0  0  0  0
   -8.5131    4.6908   11.9677 H   0  0  0  0  0  0
   -9.4587    4.0589   13.3581 H   0  0  0  0  0  0
   -7.5004    2.7621   14.1006 H   0  0  0  0  0  0
   -6.5547    3.3941   12.7103 H   0  0  0  0  0  0
   -6.0781    6.6487   13.9769 H   0  0  0  0  0  0
   -7.0359    6.1035   12.5583 H   0  0  0  0  0  0
   -5.4382    5.3584   12.9033 H   0  0  0  0  0  0
   -5.8520    5.2993   15.8742 H   0  0  0  0  0  0
   -5.1997    3.9345   14.9055 H   0  0  0  0  0  0
   -6.6303    3.6827   15.9622 H   0  0  0  0  0  0
   -3.6231    1.2814    8.6245 H   0  0  0  0  0  0
   -4.4123    2.4239    9.7640 H   0  0  0  0  0  0
   -4.5871    2.6588    7.9917 H   0  0  0  0  0  0
   -7.9460    5.1659   14.5868 H   0  0  0  0  0  0
   -9.9228    3.1826   11.4919 H   0  0  0  0  0  0
  1  2  1  0  0  0
  1 38  1  0  0  0
  1 39  1  0  0  0
  1 40  1  0  0  0
  2 10  1  0  0  0
  2  3  1  0  0  0
  3  4  2  0  0  0
  3 41  1  0  0  0
  4  5  1  0  0  0
  4 11  1  0  0  0
  5 10  2  0  0  0
  5  6  1  0  0  0
  6  7  2  0  0  0
  6 42  1  0  0  0
  7  8  1  0  0  0
  7 43  1  0  0  0
  8  9  2  0  0  0
  8 44  1  0  0  0
  9 10  1  0  0  0
  9 45  1  0  0  0
 11 16  2  0  0  0
 11 12  1  0  0  0
 12 13  2  0  0  0
 13 14  1  0  0  0
 13 17  1  0  0  0
 14 15  2  0  0  0
 15 16  1  0  0  0
 15 46  1  0  0  0
 16 47  1  0  0  0
 17 18  1  0  0  0
 17 48  1  0  0  0
 18 23  2  0  0  0
 18 19  1  0  0  0
 19 20  2  0  0  0
 19 36  1  0  0  0
 20 21  1  0  0  0
 20 49  1  0  0  0
 21 22  2  0  0  0
 21 29  1  0  0  0
 22 23  1  0  0  0
 22 24  1  0  0  0
 23 50  1  0  0  0
 24 25  1  0  0  0
 24 51  1  0  0  0
 25 26  2  0  0  0
 25 27  1  0  0  0
 27 28  2  0  0  0
 27 52  1  0  0  0
 28 53  1  0  0  0
 28 54  1  0  0  0
 29 30  1  0  0  0
 29 31  1  0  0  0
 29 72  1  0  0  0
 30 55  1  0  0  0
 30 56  1  0  0  0
 30 57  1  0  0  0
 31 32  1  0  0  0
 31 58  1  0  0  0
 31 59  1  0  0  0
 32 33  1  0  0  0
 32 60  1  0  0  0
 32 61  1  0  0  0
 33 34  1  0  0  0
 33 35  1  0  0  0
 33 71  1  0  0  0
 34 62  1  0  0  0
 34 63  1  0  0  0
 34 64  1  0  0  0
 35 65  1  0  0  0
 35 66  1  0  0  0
 35 67  1  0  0  0
 36 37  1  0  0  0
 37 68  1  0  0  0
 37 69  1  0  0  0
 37 70  1  0  0  0
M  CHG  2  29   1  33   1
M  END
> <s_m_source_file>
/Users/choderaj/github/choderalab/mcce-charges/mcce-charges.jchodera/epik_inhibitors/output/Osimertinib/Osimertinib-input.mol2

> <i_m_source_file_index>
1

> <r_epik_Ionization_Penalty>
  7.3603

> <r_epik_Ionization_Penalty_Charging>
  7.3595

> <r_epik_Ionization_Penalty_Neutral>
  0.0008

> <r_epik_State_Penalty>
  5.4487

> <i_epik_Tot_Q>
2

$$$$
