@<TRIPOS>MOLECULE
YY3
   70    73     1     0     0
SMALL
NO_CHARGES

@<TRIPOS>ATOM
      1  C13       -3.2190  -49.7970   11.0900 C.3       1 YY3         0.0000
      2  N2        -2.4360  -49.0430   12.0780 N.3       1 YY3         0.0000
      3  C12       -3.1940  -48.2140   13.0480 C.3       1 YY3         0.0000
      4  C11       -1.8790  -50.1420   12.9170 C.3       1 YY3         0.0000
      5  C10       -0.3450  -50.2720   12.7500 C.3       1 YY3         0.0000
      6  N1         0.2540  -49.4220   13.8270 N.pl3     1 YY3         0.0000
      7  C28        1.2860  -48.4860   13.3050 C.3       1 YY3         0.0000
      8  C3         1.8270  -50.9880   14.7920 C.ar      1 YY3         0.0000
      9  C4         2.2570  -51.7560   15.8830 C.ar      1 YY3         0.0000
     10  O1         3.3840  -52.5630   15.7970 O.3       1 YY3         0.0000
     11  C14        4.2560  -52.2140   14.7430 C.3       1 YY3         0.0000
     12  C2         0.6890  -50.2020   14.9230 C.ar      1 YY3         0.0000
     13  C1        -0.0870  -50.1800   16.1140 C.ar      1 YY3         0.0000
     14  N         -1.1890  -49.3830   16.2610 N.am      1 YY3         0.0000
     15  C7        -2.2310  -49.6780   17.0600 C.2       1 YY3         0.0000
     16  O         -2.2740  -50.7450   17.6610 O.2       1 YY3         0.0000
     17  C8        -3.3970  -48.6770   17.2180 C.2       1 YY3         0.0000
     18  C9        -4.5960  -48.9250   18.0680 C.2       1 YY3         0.0000
     19  C6         0.3770  -50.9640   17.2040 C.ar      1 YY3         0.0000
     20  C5         1.5390  -51.7450   17.1020 C.ar      1 YY3         0.0000
     21  N3         2.0390  -52.5820   18.1300 N.pl3     1 YY3         0.0000
     22  C15        1.6980  -52.5930   19.4850 C.ar      1 YY3         0.0000
     23  N5         0.9690  -51.6510   20.0690 N.ar      1 YY3         0.0000
     24  N4         2.1650  -53.6150   20.2090 N.ar      1 YY3         0.0000
     25  C16        1.8870  -53.7180   21.5680 C.ar      1 YY3         0.0000
     26  C17        1.1370  -52.7430   22.1890 C.ar      1 YY3         0.0000
     27  C18        0.6750  -51.6860   21.3960 C.ar      1 YY3         0.0000
     28  C19       -0.1460  -50.6020   22.0120 C.ar      1 YY3         0.0000
     29  C26       -0.4110  -49.3940   21.4760 C.ar      1 YY3         0.0000
     30  C25       -0.0560  -48.8180   20.3070 C.ar      1 YY3         0.0000
     31  C24       -0.4670  -47.5300   19.9650 C.ar      1 YY3         0.0000
     32  C23       -1.2660  -46.8340   20.8660 C.ar      1 YY3         0.0000
     33  C22       -1.6160  -47.4370   22.0710 C.ar      1 YY3         0.0000
     34  C21       -1.1720  -48.7260   22.3530 C.ar      1 YY3         0.0000
     35  N6        -1.3740  -49.5080   23.4040 N.pl3     1 YY3         0.0000
     36  C27       -2.1580  -49.1370   24.5860 C.3       1 YY3         0.0000
     37  C20       -0.7510  -50.6610   23.2050 C.ar      1 YY3         0.0000
     38  H1        -3.6980  -49.0970   10.3890 H         1 YY3         0.0000
     39  H2        -2.5540  -50.4740   10.5340 H         1 YY3         0.0000
     40  H3        -3.9920  -50.3850   11.6060 H         1 YY3         0.0000
     41  H5        -2.4910  -47.7070   13.7250 H         1 YY3         0.0000
     42  H6        -3.7860  -47.4630   12.5040 H         1 YY3         0.0000
     43  H7        -3.8670  -48.8580   13.6330 H         1 YY3         0.0000
     44  H8        -2.1060  -49.9340   13.9730 H         1 YY3         0.0000
     45  H9        -2.3510  -51.0900   12.6210 H         1 YY3         0.0000
     46  H10       -0.0340  -51.3200   12.8710 H         1 YY3         0.0000
     47  H11       -0.0350  -49.9100   11.7590 H         1 YY3         0.0000
     48  H12        1.6920  -47.8880   14.1340 H         1 YY3         0.0000
     49  H13        2.0980  -49.0610   12.8350 H         1 YY3         0.0000
     50  H14        0.8310  -47.8180   12.5590 H         1 YY3         0.0000
     51  H15        2.3740  -51.0070   13.8610 H         1 YY3         0.0000
     52  H16        5.1200  -52.8950   14.7400 H         1 YY3         0.0000
     53  H17        3.7230  -52.2950   13.7840 H         1 YY3         0.0000
     54  H18        4.6050  -51.1800   14.8830 H         1 YY3         0.0000
     55  H19       -1.2220  -48.5280   15.7430 H         1 YY3         0.0000
     56  H20       -3.3400  -47.7420   16.6810 H         1 YY3         0.0000
     57  H22       -5.3750  -48.1800   18.1330 H         1 YY3         0.0000
     58  H23       -4.6850  -49.8500   18.6190 H         1 YY3         0.0000
     59  H25       -0.1760  -50.9590   18.1310 H         1 YY3         0.0000
     60  H26        2.7260  -53.2530   17.8490 H         1 YY3         0.0000
     61  H27        2.2580  -54.5590   22.1350 H         1 YY3         0.0000
     62  H28        0.9150  -52.7920   23.2450 H         1 YY3         0.0000
     63  H29        0.5640  -49.3710   19.6170 H         1 YY3         0.0000
     64  H30       -0.1730  -47.0850   19.0260 H         1 YY3         0.0000
     65  H31       -1.6110  -45.8370   20.6330 H         1 YY3         0.0000
     66  H32       -2.2300  -46.9070   22.7840 H         1 YY3         0.0000
     67  H33       -2.1610  -49.9720   25.3020 H         1 YY3         0.0000
     68  H34       -1.7110  -48.2500   25.0590 H         1 YY3         0.0000
     69  H35       -3.1910  -48.9100   24.2840 H         1 YY3         0.0000
     70  H36       -0.7340  -51.5000   23.8850 H         1 YY3         0.0000
@<TRIPOS>BOND
     1    1    2 1
     2    1   38 1
     3    1   39 1
     4    1   40 1
     5    2    4 1
     6    2    3 1
     7    3   41 1
     8    3   42 1
     9    3   43 1
    10    4   44 1
    11    4   45 1
    12    4    5 1
    13    5    6 1
    14    5   46 1
    15    5   47 1
    16    6   12 1
    17    6    7 1
    18    7   48 1
    19    7   49 1
    20    7   50 1
    21    8   12 ar
    22    8    9 ar
    23    8   51 1
    24    9   20 ar
    25    9   10 1
    26   10   11 1
    27   11   52 1
    28   11   53 1
    29   11   54 1
    30   12   13 ar
    31   13   14 1
    32   13   19 ar
    33   14   15 am
    34   14   55 1
    35   15   17 1
    36   15   16 2
    37   17   18 2
    38   17   56 1
    39   18   57 1
    40   18   58 1
    41   19   59 1
    42   19   20 ar
    43   20   21 1
    44   21   22 1
    45   21   60 1
    46   22   23 ar
    47   22   24 ar
    48   23   27 ar
    49   24   25 ar
    50   25   26 ar
    51   25   61 1
    52   26   62 1
    53   27   28 1
    54   26   27 ar
    55   28   37 ar
    56   28   29 ar
    57   29   34 ar
    58   29   30 ar
    59   30   63 1
    60   30   31 ar
    61   31   32 ar
    62   31   64 1
    63   32   33 ar
    64   32   65 1
    65   33   34 ar
    66   33   66 1
    67   34   35 ar
    68   35   36 1
    69   36   67 1
    70   36   68 1
    71   36   69 1
    72   35   37 ar
    73   37   70 1
@<TRIPOS>SUBSTRUCTURE
     1 YY3         1 GROUP 0 A     ****
