@<TRIPOS>MOLECULE
~{N}-[2-[2-(dimethylamino)ethyl-methyl-amino]-4-methoxy-5-[[4-(1-methylindol-3-yl)pyrimidin-2-yl]amino]phenyl]prop-2-enamide
71   74    1
SMALL
USER_CHARGES


@<TRIPOS>ATOM
      1 C1        -11.2397    8.2942    3.0775 C.3       1 OSI         0.2082 
      2 N1        -10.3716    7.4871    3.9075 N.pl3     1 OSI        -0.4905 
      3 C2         -9.7322    6.3538    3.4818 C.ar      1 OSI         0.0617 
      4 C3         -9.0005    5.8589    4.5366 C.ar      1 OSI        -0.2375 
      5 C4         -9.2027    6.7245    5.6479 C.ar      1 OSI        -0.0629 
      6 C5         -8.7321    6.7433    6.9759 C.ar      1 OSI        -0.0875 
      7 C6         -9.1424    7.7725    7.8310 C.ar      1 OSI        -0.1522 
      8 C7        -10.0056    8.7705    7.3830 C.ar      1 OSI        -0.1170 
      9 C8        -10.4853    8.7726    6.0700 C.ar      1 OSI        -0.1386 
     10 C9        -10.0667    7.7375    5.2264 C.ar      1 OSI         0.0766 
     11 C10        -8.2053    4.6694    4.4284 C.ar      1 OSI         0.5705 
     12 N2         -8.0637    3.9524    5.5626 N.ar      1 OSI        -0.7523 
     13 C11        -7.3151    2.8396    5.4416 C.ar      1 OSI         0.8794 
     14 N3         -6.7109    2.3878    4.3261 N.ar      1 OSI        -0.7276 
     15 C12        -6.8941    3.1527    3.2299 C.ar      1 OSI         0.4615 
     16 C13        -7.6382    4.3147    3.2214 C.ar      1 OSI        -0.4065 
     17 N4         -7.1454    2.0639    6.6092 N.pl3     1 OSI        -0.7307 
     18 C14        -7.6128    2.2136    7.9282 C.ar      1 OSI         0.1854 
     19 C15        -6.8701    1.7262    9.0036 C.ar      1 OSI         0.0087 
     20 C16        -7.3450    1.8804   10.3061 C.ar      1 OSI        -0.1088 
     21 C17        -8.5626    2.5218   10.5331 C.ar      1 OSI         0.0455 
     22 C18        -9.3054    3.0091    9.4577 C.ar      1 OSI         0.1089 
     23 C19        -8.8304    2.8550    8.1552 C.ar      1 OSI        -0.1692 
     24 N5        -10.5273    3.6565    9.6615 N.am      1 OSI        -0.4594 
     25 C20       -11.3860    4.1981    8.6974 C.2       1 OSI         0.6607 
     26 O1        -11.2253    4.2064    7.4827 O.2       1 OSI        -0.5885 
     27 C21       -12.5967    4.8065    9.3216 C.2       1 OSI        -0.2404 
     28 C22       -13.5385    5.3771    8.5638 C.2       1 OSI        -0.1318 
     29 N6         -9.0240    2.6667   11.8606 N.pl3     1 OSI        -0.7102 
     30 C23        -9.8566    1.6454   12.4612 C.3       1 OSI         0.2005 
     31 C24        -8.6577    3.8316   12.6392 C.3       1 OSI         0.2105 
     32 C25        -7.3730    3.6110   13.4127 C.3       1 OSI         0.1398 
     33 N7         -7.0029    4.7637   14.1884 N.4       1 OSI        -0.7456 
     34 C26        -6.3474    5.7829   13.3541 C.3       1 OSI         0.1612 
     35 C27        -6.1152    4.3969   15.3029 C.3       1 OSI         0.1612 
     36 O2         -5.6781    1.0964    8.8026 O.3       1 OSI        -0.3487 
     37 C28        -4.5083    1.9117    8.7953 C.3       1 OSI         0.1129 
     38 H1        -11.2978    7.8541    2.0711 H         1 OSI         0.0514 
     39 H2        -10.8358    9.3150    3.0085 H         1 OSI         0.0514 
     40 H3        -12.2454    8.3270    3.5220 H         1 OSI         0.0514 
     41 H4         -9.8536    5.9989    2.4662 H         1 OSI         0.1770 
     42 H5         -8.0590    5.9728    7.3411 H         1 OSI         0.1380 
     43 H6         -8.7828    7.7922    8.8564 H         1 OSI         0.1297 
     44 H7        -10.3114    9.5603    8.0644 H         1 OSI         0.1297 
     45 H8        -11.1571    9.5522    5.7266 H         1 OSI         0.1315 
     46 H9         -6.4097    2.7934    2.3281 H         1 OSI         0.0298 
     47 H10        -7.7593    4.8995    2.3179 H         1 OSI         0.1589 
     48 H11        -6.5444    1.1432    6.5753 H         1 OSI         0.4660 
     49 H12        -6.7620    1.4983   11.1409 H         1 OSI         0.1439 
     50 H13        -9.4089    3.2354    7.3157 H         1 OSI         0.1989 
     51 H14       -10.9166    3.7880   10.6819 H         1 OSI         0.3330 
     52 H15       -12.7106    4.7827   10.4154 H         1 OSI         0.1312 
     53 H16       -14.4274    5.8229    9.0340 H         1 OSI         0.1300 
     54 H17       -13.4246    5.4009    7.4700 H         1 OSI         0.1300 
     55 H18       -10.1108    1.9382   13.4906 H         1 OSI         0.0302 
     56 H19        -9.3118    0.6899   12.4757 H         1 OSI         0.0302 
     57 H20       -10.7796    1.5324   11.8735 H         1 OSI         0.0302 
     58 H21        -8.5131    4.6908   11.9677 H         1 OSI         0.0544 
     59 H22        -9.4587    4.0589   13.3581 H         1 OSI         0.0544 
     60 H23        -7.5004    2.7621   14.1006 H         1 OSI         0.0349 
     61 H24        -6.5547    3.3941   12.7103 H         1 OSI         0.0349 
     62 H25        -6.0781    6.6487   13.9769 H         1 OSI         0.0304 
     63 H26        -7.0359    6.1035   12.5583 H         1 OSI         0.0304 
     64 H27        -5.4382    5.3584   12.9033 H         1 OSI         0.0304 
     65 H28        -5.8520    5.2993   15.8742 H         1 OSI         0.0304 
     66 H29        -5.1997    3.9345   14.9055 H         1 OSI         0.0304 
     67 H30        -6.6303    3.6827   15.9622 H         1 OSI         0.0304 
     68 H31        -3.6231    1.2814    8.6245 H         1 OSI         0.0398 
     69 H32        -4.4123    2.4239    9.7640 H         1 OSI         0.0398 
     70 H33        -4.5871    2.6588    7.9917 H         1 OSI         0.0398 
     71 H71        -7.9460    5.1659   14.5868 H         1 OSI         0.0000 
@<TRIPOS>BOND
     1    1    2 1    
     2    1   38 1    
     3    1   39 1    
     4    1   40 1    
     5    2   10 ar   
     6    2    3 ar   
     7    3    4 ar   
     8    3   41 1    
     9    4    5 ar   
    10    4   11 1    
    11    5   10 ar   
    12    5    6 ar   
    13    6    7 ar   
    14    6   42 1    
    15    7    8 ar   
    16    7   43 1    
    17    8    9 ar   
    18    8   44 1    
    19    9   10 ar   
    20    9   45 1    
    21   11   16 ar   
    22   11   12 ar   
    23   12   13 ar   
    24   13   14 ar   
    25   13   17 1    
    26   14   15 ar   
    27   15   16 ar   
    28   15   46 1    
    29   16   47 1    
    30   17   18 1    
    31   17   48 1    
    32   18   23 ar   
    33   18   19 ar   
    34   19   20 ar   
    35   19   36 1    
    36   20   21 ar   
    37   20   49 1    
    38   21   22 ar   
    39   21   29 1    
    40   22   23 ar   
    41   22   24 1    
    42   23   50 1    
    43   24   25 am   BACKBONE|DICT|INTERRES
    44   24   51 1    
    45   25   26 2    
    46   25   27 1    
    47   27   28 2    
    48   27   52 1    
    49   28   53 1    
    50   28   54 1    
    51   29   30 1    
    52   29   31 1    
    53   30   55 1    
    54   30   56 1    
    55   30   57 1    
    56   31   32 1    
    57   31   58 1    
    58   31   59 1    
    59   32   33 1    
    60   32   60 1    
    61   32   61 1    
    62   33   34 1    
    63   33   35 1    
    64   33   71 1    
    65   34   62 1    
    66   34   63 1    
    67   34   64 1    
    68   35   65 1    
    69   35   66 1    
    70   35   67 1    
    71   36   37 1    
    72   37   68 1    
    73   37   69 1    
    74   37   70 1    
@<TRIPOS>SUBSTRUCTURE
     1 OSI         1 GROUP             0       ****    0 ROOT    
@<TRIPOS>MOLECULE
~{N}-[2-[2-(dimethylamino)ethyl-methyl-amino]-4-methoxy-5-[[4-(1-methylindol-3-yl)pyrimidin-2-yl]amino]phenyl]prop-2-enamide
70   73    1
SMALL
USER_CHARGES


@<TRIPOS>ATOM
      1 C1        -11.2397    8.2942    3.0775 C.3       1 OSI         0.2082 
      2 N1        -10.3716    7.4871    3.9075 N.pl3     1 OSI        -0.4905 
      3 C2         -9.7322    6.3538    3.4818 C.ar      1 OSI         0.0617 
      4 C3         -9.0005    5.8589    4.5366 C.ar      1 OSI        -0.2375 
      5 C4         -9.2027    6.7245    5.6479 C.ar      1 OSI        -0.0629 
      6 C5         -8.7321    6.7433    6.9759 C.ar      1 OSI        -0.0875 
      7 C6         -9.1424    7.7725    7.8310 C.ar      1 OSI        -0.1522 
      8 C7        -10.0056    8.7705    7.3830 C.ar      1 OSI        -0.1170 
      9 C8        -10.4853    8.7726    6.0700 C.ar      1 OSI        -0.1386 
     10 C9        -10.0667    7.7375    5.2264 C.ar      1 OSI         0.0766 
     11 C10        -8.2053    4.6694    4.4284 C.ar      1 OSI         0.5705 
     12 N2         -8.0637    3.9524    5.5626 N.ar      1 OSI        -0.7523 
     13 C11        -7.3151    2.8396    5.4416 C.ar      1 OSI         0.8794 
     14 N3         -6.7109    2.3878    4.3261 N.ar      1 OSI        -0.7276 
     15 C12        -6.8941    3.1527    3.2299 C.ar      1 OSI         0.4615 
     16 C13        -7.6382    4.3147    3.2214 C.ar      1 OSI        -0.4065 
     17 N4         -7.1454    2.0639    6.6092 N.pl3     1 OSI        -0.7307 
     18 C14        -7.6128    2.2136    7.9282 C.ar      1 OSI         0.1854 
     19 C15        -6.8701    1.7262    9.0036 C.ar      1 OSI         0.0087 
     20 C16        -7.3450    1.8804   10.3061 C.ar      1 OSI        -0.1088 
     21 C17        -8.5626    2.5218   10.5331 C.ar      1 OSI         0.0455 
     22 C18        -9.3054    3.0091    9.4577 C.ar      1 OSI         0.1089 
     23 C19        -8.8304    2.8550    8.1552 C.ar      1 OSI        -0.1692 
     24 N5        -10.5273    3.6565    9.6615 N.am      1 OSI        -0.4594 
     25 C20       -11.3860    4.1981    8.6974 C.2       1 OSI         0.6607 
     26 O1        -11.2253    4.2064    7.4827 O.2       1 OSI        -0.5885 
     27 C21       -12.5967    4.8065    9.3216 C.2       1 OSI        -0.2404 
     28 C22       -13.5385    5.3771    8.5638 C.2       1 OSI        -0.1318 
     29 N6         -9.0240    2.6667   11.8606 N.pl3     1 OSI        -0.7102 
     30 C23        -9.8566    1.6454   12.4612 C.3       1 OSI         0.2005 
     31 C24        -8.6577    3.8316   12.6392 C.3       1 OSI         0.2105 
     32 C25        -7.3730    3.6110   13.4127 C.3       1 OSI         0.1398 
     33 N7         -7.0029    4.7637   14.1884 N.3       1 OSI        -0.7456 
     34 C26        -6.3474    5.7829   13.3541 C.3       1 OSI         0.1612 
     35 C27        -6.1152    4.3969   15.3029 C.3       1 OSI         0.1612 
     36 O2         -5.6781    1.0964    8.8026 O.3       1 OSI        -0.3487 
     37 C28        -4.5083    1.9117    8.7953 C.3       1 OSI         0.1129 
     38 H1        -11.2978    7.8541    2.0711 H         1 OSI         0.0514 
     39 H2        -10.8358    9.3150    3.0085 H         1 OSI         0.0514 
     40 H3        -12.2454    8.3270    3.5220 H         1 OSI         0.0514 
     41 H4         -9.8536    5.9989    2.4662 H         1 OSI         0.1770 
     42 H5         -8.0590    5.9728    7.3411 H         1 OSI         0.1380 
     43 H6         -8.7828    7.7922    8.8564 H         1 OSI         0.1297 
     44 H7        -10.3114    9.5603    8.0644 H         1 OSI         0.1297 
     45 H8        -11.1571    9.5522    5.7266 H         1 OSI         0.1315 
     46 H9         -6.4097    2.7934    2.3281 H         1 OSI         0.0298 
     47 H10        -7.7593    4.8995    2.3179 H         1 OSI         0.1589 
     48 H11        -6.5444    1.1432    6.5753 H         1 OSI         0.4660 
     49 H12        -6.7620    1.4983   11.1409 H         1 OSI         0.1439 
     50 H13        -9.4089    3.2354    7.3157 H         1 OSI         0.1989 
     51 H14       -10.9166    3.7880   10.6819 H         1 OSI         0.3330 
     52 H15       -12.7106    4.7827   10.4154 H         1 OSI         0.1312 
     53 H16       -14.4274    5.8229    9.0340 H         1 OSI         0.1300 
     54 H17       -13.4246    5.4009    7.4700 H         1 OSI         0.1300 
     55 H18       -10.1108    1.9382   13.4906 H         1 OSI         0.0302 
     56 H19        -9.3118    0.6899   12.4757 H         1 OSI         0.0302 
     57 H20       -10.7796    1.5324   11.8735 H         1 OSI         0.0302 
     58 H21        -8.5131    4.6908   11.9677 H         1 OSI         0.0544 
     59 H22        -9.4587    4.0589   13.3581 H         1 OSI         0.0544 
     60 H23        -7.5004    2.7621   14.1006 H         1 OSI         0.0349 
     61 H24        -6.5547    3.3941   12.7103 H         1 OSI         0.0349 
     62 H25        -6.0781    6.6487   13.9769 H         1 OSI         0.0304 
     63 H26        -7.0359    6.1035   12.5583 H         1 OSI         0.0304 
     64 H27        -5.4382    5.3584   12.9033 H         1 OSI         0.0304 
     65 H28        -5.8520    5.2993   15.8742 H         1 OSI         0.0304 
     66 H29        -5.1997    3.9345   14.9055 H         1 OSI         0.0304 
     67 H30        -6.6303    3.6827   15.9622 H         1 OSI         0.0304 
     68 H31        -3.6231    1.2814    8.6245 H         1 OSI         0.0398 
     69 H32        -4.4123    2.4239    9.7640 H         1 OSI         0.0398 
     70 H33        -4.5871    2.6588    7.9917 H         1 OSI         0.0398 
@<TRIPOS>BOND
     1    1    2 1    
     2    1   38 1    
     3    1   39 1    
     4    1   40 1    
     5    2   10 ar   
     6    2    3 ar   
     7    3    4 ar   
     8    3   41 1    
     9    4    5 ar   
    10    4   11 1    
    11    5   10 ar   
    12    5    6 ar   
    13    6    7 ar   
    14    6   42 1    
    15    7    8 ar   
    16    7   43 1    
    17    8    9 ar   
    18    8   44 1    
    19    9   10 ar   
    20    9   45 1    
    21   11   16 ar   
    22   11   12 ar   
    23   12   13 ar   
    24   13   14 ar   
    25   13   17 1    
    26   14   15 ar   
    27   15   16 ar   
    28   15   46 1    
    29   16   47 1    
    30   17   18 1    
    31   17   48 1    
    32   18   23 ar   
    33   18   19 ar   
    34   19   20 ar   
    35   19   36 1    
    36   20   21 ar   
    37   20   49 1    
    38   21   22 ar   
    39   21   29 1    
    40   22   23 ar   
    41   22   24 1    
    42   23   50 1    
    43   24   25 am   BACKBONE|DICT|INTERRES
    44   24   51 1    
    45   25   26 2    
    46   25   27 1    
    47   27   28 2    
    48   27   52 1    
    49   28   53 1    
    50   28   54 1    
    51   29   30 1    
    52   29   31 1    
    53   30   55 1    
    54   30   56 1    
    55   30   57 1    
    56   31   32 1    
    57   31   58 1    
    58   31   59 1    
    59   32   33 1    
    60   32   60 1    
    61   32   61 1    
    62   33   34 1    
    63   33   35 1    
    64   34   62 1    
    65   34   63 1    
    66   34   64 1    
    67   35   65 1    
    68   35   66 1    
    69   35   67 1    
    70   36   37 1    
    71   37   68 1    
    72   37   69 1    
    73   37   70 1    
@<TRIPOS>SUBSTRUCTURE
     1 OSI         1 GROUP             0       ****    0 ROOT    
@<TRIPOS>MOLECULE
~{N}-[2-[2-(dimethylamino)ethyl-methyl-amino]-4-methoxy-5-[[4-(1-methylindol-3-yl)pyrimidin-2-yl]amino]phenyl]prop-2-enamide
71   74    1
SMALL
USER_CHARGES


@<TRIPOS>ATOM
      1 C1        -11.2397    8.2942    3.0775 C.3       1 OSI         0.2082 
      2 N1        -10.3716    7.4871    3.9075 N.pl3     1 OSI        -0.4905 
      3 C2         -9.7322    6.3538    3.4818 C.ar      1 OSI         0.0617 
      4 C3         -9.0005    5.8589    4.5366 C.ar      1 OSI        -0.2375 
      5 C4         -9.2027    6.7245    5.6479 C.ar      1 OSI        -0.0629 
      6 C5         -8.7321    6.7433    6.9759 C.ar      1 OSI        -0.0875 
      7 C6         -9.1424    7.7725    7.8310 C.ar      1 OSI        -0.1522 
      8 C7        -10.0056    8.7705    7.3830 C.ar      1 OSI        -0.1170 
      9 C8        -10.4853    8.7726    6.0700 C.ar      1 OSI        -0.1386 
     10 C9        -10.0667    7.7375    5.2264 C.ar      1 OSI         0.0766 
     11 C10        -8.2053    4.6694    4.4284 C.ar      1 OSI         0.5705 
     12 N2         -8.0637    3.9524    5.5626 N.ar      1 OSI        -0.7523 
     13 C11        -7.3151    2.8396    5.4416 C.ar      1 OSI         0.8794 
     14 N3         -6.7109    2.3878    4.3261 N.ar      1 OSI        -0.7276 
     15 C12        -6.8941    3.1527    3.2299 C.ar      1 OSI         0.4615 
     16 C13        -7.6382    4.3147    3.2214 C.ar      1 OSI        -0.4065 
     17 N4         -7.1454    2.0639    6.6092 N.pl3     1 OSI        -0.7307 
     18 C14        -7.6128    2.2136    7.9282 C.ar      1 OSI         0.1854 
     19 C15        -6.8701    1.7262    9.0036 C.ar      1 OSI         0.0087 
     20 C16        -7.3450    1.8804   10.3061 C.ar      1 OSI        -0.1088 
     21 C17        -8.5626    2.5218   10.5331 C.ar      1 OSI         0.0455 
     22 C18        -9.3054    3.0091    9.4577 C.ar      1 OSI         0.1089 
     23 C19        -8.8304    2.8550    8.1552 C.ar      1 OSI        -0.1692 
     24 N5        -10.5273    3.6565    9.6615 N.am      1 OSI        -0.4594 
     25 C20       -11.3860    4.1981    8.6974 C.2       1 OSI         0.6607 
     26 O1        -11.2253    4.2064    7.4827 O.2       1 OSI        -0.5885 
     27 C21       -12.5967    4.8065    9.3216 C.2       1 OSI        -0.2404 
     28 C22       -13.5385    5.3771    8.5638 C.2       1 OSI        -0.1318 
     29 N6         -9.0240    2.6667   11.8606 N.4       1 OSI        -0.7102 
     30 C23        -9.8566    1.6454   12.4612 C.3       1 OSI         0.2005 
     31 C24        -8.6577    3.8316   12.6392 C.3       1 OSI         0.2105 
     32 C25        -7.3730    3.6110   13.4127 C.3       1 OSI         0.1398 
     33 N7         -7.0029    4.7637   14.1884 N.3       1 OSI        -0.7456 
     34 C26        -6.3474    5.7829   13.3541 C.3       1 OSI         0.1612 
     35 C27        -6.1152    4.3969   15.3029 C.3       1 OSI         0.1612 
     36 O2         -5.6781    1.0964    8.8026 O.3       1 OSI        -0.3487 
     37 C28        -4.5083    1.9117    8.7953 C.3       1 OSI         0.1129 
     38 H1        -11.2978    7.8541    2.0711 H         1 OSI         0.0514 
     39 H2        -10.8358    9.3150    3.0085 H         1 OSI         0.0514 
     40 H3        -12.2454    8.3270    3.5220 H         1 OSI         0.0514 
     41 H4         -9.8536    5.9989    2.4662 H         1 OSI         0.1770 
     42 H5         -8.0590    5.9728    7.3411 H         1 OSI         0.1380 
     43 H6         -8.7828    7.7922    8.8564 H         1 OSI         0.1297 
     44 H7        -10.3114    9.5603    8.0644 H         1 OSI         0.1297 
     45 H8        -11.1571    9.5522    5.7266 H         1 OSI         0.1315 
     46 H9         -6.4097    2.7934    2.3281 H         1 OSI         0.0298 
     47 H10        -7.7593    4.8995    2.3179 H         1 OSI         0.1589 
     48 H11        -6.5444    1.1432    6.5753 H         1 OSI         0.4660 
     49 H12        -6.7620    1.4983   11.1409 H         1 OSI         0.1439 
     50 H13        -9.4089    3.2354    7.3157 H         1 OSI         0.1989 
     51 H14       -10.9166    3.7880   10.6819 H         1 OSI         0.3330 
     52 H15       -12.7106    4.7827   10.4154 H         1 OSI         0.1312 
     53 H16       -14.4274    5.8229    9.0340 H         1 OSI         0.1300 
     54 H17       -13.4246    5.4009    7.4700 H         1 OSI         0.1300 
     55 H18       -10.1108    1.9382   13.4906 H         1 OSI         0.0302 
     56 H19        -9.3118    0.6899   12.4757 H         1 OSI         0.0302 
     57 H20       -10.7796    1.5324   11.8735 H         1 OSI         0.0302 
     58 H21        -8.5131    4.6908   11.9677 H         1 OSI         0.0544 
     59 H22        -9.4587    4.0589   13.3581 H         1 OSI         0.0544 
     60 H23        -7.5004    2.7621   14.1006 H         1 OSI         0.0349 
     61 H24        -6.5547    3.3941   12.7103 H         1 OSI         0.0349 
     62 H25        -6.0781    6.6487   13.9769 H         1 OSI         0.0304 
     63 H26        -7.0359    6.1035   12.5583 H         1 OSI         0.0304 
     64 H27        -5.4382    5.3584   12.9033 H         1 OSI         0.0304 
     65 H28        -5.8520    5.2993   15.8742 H         1 OSI         0.0304 
     66 H29        -5.1997    3.9345   14.9055 H         1 OSI         0.0304 
     67 H30        -6.6303    3.6827   15.9622 H         1 OSI         0.0304 
     68 H31        -3.6231    1.2814    8.6245 H         1 OSI         0.0398 
     69 H32        -4.4123    2.4239    9.7640 H         1 OSI         0.0398 
     70 H33        -4.5871    2.6588    7.9917 H         1 OSI         0.0398 
     71 H71        -9.9228    3.1826   11.4919 H         1 OSI         0.0000 
@<TRIPOS>BOND
     1    1    2 1    
     2    1   38 1    
     3    1   39 1    
     4    1   40 1    
     5    2   10 ar   
     6    2    3 ar   
     7    3    4 ar   
     8    3   41 1    
     9    4    5 ar   
    10    4   11 1    
    11    5   10 ar   
    12    5    6 ar   
    13    6    7 ar   
    14    6   42 1    
    15    7    8 ar   
    16    7   43 1    
    17    8    9 ar   
    18    8   44 1    
    19    9   10 ar   
    20    9   45 1    
    21   11   16 ar   
    22   11   12 ar   
    23   12   13 ar   
    24   13   14 ar   
    25   13   17 1    
    26   14   15 ar   
    27   15   16 ar   
    28   15   46 1    
    29   16   47 1    
    30   17   18 1    
    31   17   48 1    
    32   18   23 ar   
    33   18   19 ar   
    34   19   20 ar   
    35   19   36 1    
    36   20   21 ar   
    37   20   49 1    
    38   21   22 ar   
    39   21   29 1    
    40   22   23 ar   
    41   22   24 1    
    42   23   50 1    
    43   24   25 am   BACKBONE|DICT|INTERRES
    44   24   51 1    
    45   25   26 2    
    46   25   27 1    
    47   27   28 2    
    48   27   52 1    
    49   28   53 1    
    50   28   54 1    
    51   29   30 1    
    52   29   31 1    
    53   29   71 1    
    54   30   55 1    
    55   30   56 1    
    56   30   57 1    
    57   31   32 1    
    58   31   58 1    
    59   31   59 1    
    60   32   33 1    
    61   32   60 1    
    62   32   61 1    
    63   33   34 1    
    64   33   35 1    
    65   34   62 1    
    66   34   63 1    
    67   34   64 1    
    68   35   65 1    
    69   35   66 1    
    70   35   67 1    
    71   36   37 1    
    72   37   68 1    
    73   37   69 1    
    74   37   70 1    
@<TRIPOS>SUBSTRUCTURE
     1 OSI         1 GROUP             0       ****    0 ROOT    
@<TRIPOS>MOLECULE
~{N}-[2-[2-(dimethylamino)ethyl-methyl-amino]-4-methoxy-5-[[4-(1-methylindol-3-yl)pyrimidin-2-yl]amino]phenyl]prop-2-enamide
71   74    1
SMALL
USER_CHARGES


@<TRIPOS>ATOM
      1 C1        -11.2485    8.2871    3.0758 C.3       1 OSI         0.2082 
      2 N1        -10.3788    7.4818    3.9058 N.pl3     1 OSI        -0.4905 
      3 C2         -9.7382    6.3490    3.4806 C.ar      1 OSI         0.0617 
      4 C3         -9.0051    5.8559    4.5353 C.ar      1 OSI        -0.2375 
      5 C4         -9.2076    6.7222    5.6460 C.ar      1 OSI        -0.0629 
      6 C5         -8.7361    6.7427    6.9737 C.ar      1 OSI        -0.0875 
      7 C6         -9.1471    7.7721    7.8282 C.ar      1 OSI        -0.1522 
      8 C7        -10.0119    8.7686    7.3800 C.ar      1 OSI        -0.1170 
      9 C8        -10.4926    8.7690    6.0673 C.ar      1 OSI        -0.1386 
     10 C9        -10.0732    7.7337    5.2243 C.ar      1 OSI         0.0766 
     11 C10        -8.2084    4.6674    4.4275 C.ar      1 OSI         0.5705 
     12 N2         -8.0653    3.9514    5.5622 N.ar      1 OSI        -0.7523 
     13 C11        -7.3151    2.8396    5.4416 C.ar      1 OSI         0.8794 
     14 N3         -6.7095    2.3887    4.3265 N.ar      1 OSI        -0.7276 
     15 C12        -6.8928    3.1535    3.2303 C.ar      1 OSI         0.4615 
     16 C13        -7.6410    4.3129    3.2206 C.ar      1 OSI        -0.4065 
     17 N4         -7.1454    2.0639    6.6092 N.pl3     1 OSI        -0.7307 
     18 C14        -7.6128    2.2136    7.9282 C.ar      1 OSI         0.1854 
     19 C15        -6.8701    1.7262    9.0036 C.ar      1 OSI         0.0087 
     20 C16        -7.3450    1.8804   10.3061 C.ar      1 OSI        -0.1088 
     21 C17        -8.5626    2.5218   10.5331 C.ar      1 OSI         0.0455 
     22 C18        -9.3054    3.0091    9.4577 C.ar      1 OSI         0.1089 
     23 C19        -8.8304    2.8550    8.1552 C.ar      1 OSI        -0.1692 
     24 N5        -10.5273    3.6565    9.6615 N.2       1 OSI        -0.4594 
     25 C20       -11.3860    4.1981    8.6974 C.2       1 OSI         0.6607 
     26 O1        -11.2253    4.2064    7.4827 O.3       1 OSI        -0.5885 
     27 C21       -12.5967    4.8065    9.3216 C.2       1 OSI        -0.2404 
     28 C22       -13.5385    5.3771    8.5638 C.2       1 OSI        -0.1318 
     29 N6         -9.0240    2.6667   11.8606 N.pl3     1 OSI        -0.7102 
     30 C23        -9.8566    1.6454   12.4612 C.3       1 OSI         0.2005 
     31 C24        -8.6577    3.8316   12.6392 C.3       1 OSI         0.2105 
     32 C25        -7.3730    3.6110   13.4127 C.3       1 OSI         0.1398 
     33 N7         -7.0029    4.7637   14.1884 N.4       1 OSI        -0.7456 
     34 C26        -6.3474    5.7829   13.3541 C.3       1 OSI         0.1612 
     35 C27        -6.1152    4.3969   15.3029 C.3       1 OSI         0.1612 
     36 O2         -5.6781    1.0964    8.8026 O.3       1 OSI        -0.3487 
     37 C28        -4.5083    1.9117    8.7953 C.3       1 OSI         0.1129 
     38 H1        -11.3068    7.8461    2.0698 H         1 OSI         0.0514 
     39 H2        -10.8460    9.3084    3.0057 H         1 OSI         0.0514 
     40 H3        -12.2539    8.3190    3.5210 H         1 OSI         0.0514 
     41 H4         -9.7279    5.8755    2.5999 H         1 OSI         0.1770 
     42 H5         -8.1153    6.0334    7.3077 H         1 OSI         0.1380 
     43 H6         -8.8199    7.7984    8.7728 H         1 OSI         0.1297 
     44 H7        -10.2881    9.4911    8.0138 H         1 OSI         0.1297 
     45 H8        -11.1125    9.4918    5.7621 H         1 OSI         0.1315 
     46 H9         -6.4493    2.8377    2.3915 H         1 OSI         0.0298 
     47 H10        -7.7425    4.8355    2.3741 H         1 OSI         0.1589 
     48 H12        -6.7620    1.4983   11.1409 H         1 OSI         0.1439 
     49 H13        -9.4089    3.2354    7.3157 H         1 OSI         0.1989 
     50 H15       -12.7106    4.7827   10.4154 H         1 OSI         0.1312 
     51 H16       -14.4274    5.8229    9.0340 H         1 OSI         0.1300 
     52 H17       -13.4246    5.4009    7.4700 H         1 OSI         0.1300 
     53 H18       -10.1108    1.9382   13.4906 H         1 OSI         0.0302 
     54 H19        -9.3118    0.6899   12.4757 H         1 OSI         0.0302 
     55 H20       -10.7796    1.5324   11.8735 H         1 OSI         0.0302 
     56 H21        -8.5131    4.6908   11.9677 H         1 OSI         0.0544 
     57 H22        -9.4587    4.0589   13.3581 H         1 OSI         0.0544 
     58 H23        -7.5004    2.7621   14.1006 H         1 OSI         0.0349 
     59 H24        -6.5547    3.3941   12.7103 H         1 OSI         0.0349 
     60 H25        -6.0781    6.6487   13.9769 H         1 OSI         0.0304 
     61 H26        -7.0359    6.1035   12.5583 H         1 OSI         0.0304 
     62 H27        -5.4382    5.3584   12.9033 H         1 OSI         0.0304 
     63 H28        -5.8520    5.2993   15.8742 H         1 OSI         0.0304 
     64 H29        -5.1997    3.9345   14.9055 H         1 OSI         0.0304 
     65 H30        -6.6303    3.6827   15.9622 H         1 OSI         0.0304 
     66 H31        -3.6231    1.2814    8.6245 H         1 OSI         0.0398 
     67 H32        -4.4123    2.4239    9.7640 H         1 OSI         0.0398 
     68 H33        -4.5871    2.6588    7.9917 H         1 OSI         0.0398 
     69 H69        -7.9460    5.1659   14.5868 H         1 OSI         0.0000 
     70 H70       -11.9817    4.6680    6.8310 H         1 OSI         0.0000 
     71 H71        -6.5444    1.1432    6.5753 H         1 OSI         0.0000 
@<TRIPOS>BOND
     1    1    2 1    
     2    1   38 1    
     3    1   39 1    
     4    1   40 1    
     5    2   10 ar   
     6    2    3 ar   
     7    3    4 ar   
     8    3   41 1    
     9    4    5 ar   
    10    4   11 1    
    11    5   10 ar   
    12    5    6 ar   
    13    6    7 ar   
    14    6   42 1    
    15    7    8 ar   
    16    7   43 1    
    17    8    9 ar   
    18    8   44 1    
    19    9   10 ar   
    20    9   45 1    
    21   11   16 ar   
    22   11   12 ar   
    23   12   13 ar   
    24   13   17 1    
    25   13   14 ar   
    26   14   15 ar   
    27   15   46 1    
    28   15   16 ar   
    29   16   47 1    
    30   17   18 1    
    31   17   71 1    
    32   18   23 ar   
    33   18   19 ar   
    34   19   20 ar   
    35   19   36 1    
    36   20   21 ar   
    37   20   48 1    
    38   21   22 ar   
    39   21   29 1    
    40   22   23 ar   
    41   22   24 1    
    42   23   49 1    
    43   24   25 2    
    44   25   26 1    
    45   25   27 1    
    46   26   70 1    
    47   27   28 2    
    48   27   50 1    
    49   28   51 1    
    50   28   52 1    
    51   29   30 1    
    52   29   31 1    
    53   30   53 1    
    54   30   54 1    
    55   30   55 1    
    56   31   32 1    
    57   31   56 1    
    58   31   57 1    
    59   32   33 1    
    60   32   58 1    
    61   32   59 1    
    62   33   34 1    
    63   33   35 1    
    64   33   69 1    
    65   34   60 1    
    66   34   61 1    
    67   34   62 1    
    68   35   63 1    
    69   35   64 1    
    70   35   65 1    
    71   36   37 1    
    72   37   66 1    
    73   37   67 1    
    74   37   68 1    
@<TRIPOS>SUBSTRUCTURE
     1 OSI         1 GROUP             0       ****    0 ROOT    
@<TRIPOS>MOLECULE
~{N}-[2-[2-(dimethylamino)ethyl-methyl-amino]-4-methoxy-5-[[4-(1-methylindol-3-yl)pyrimidin-2-yl]amino]phenyl]prop-2-enamide
71   74    1
SMALL
USER_CHARGES


@<TRIPOS>ATOM
      1 C1        -11.2397    8.2942    3.0775 C.3       1 OSI         0.2082 
      2 N1        -10.3716    7.4871    3.9075 N.pl3     1 OSI        -0.4905 
      3 C2         -9.7322    6.3538    3.4818 C.ar      1 OSI         0.0617 
      4 C3         -9.0005    5.8589    4.5366 C.ar      1 OSI        -0.2375 
      5 C4         -9.2027    6.7245    5.6479 C.ar      1 OSI        -0.0629 
      6 C5         -8.7321    6.7433    6.9759 C.ar      1 OSI        -0.0875 
      7 C6         -9.1424    7.7725    7.8310 C.ar      1 OSI        -0.1522 
      8 C7        -10.0056    8.7705    7.3830 C.ar      1 OSI        -0.1170 
      9 C8        -10.4853    8.7726    6.0700 C.ar      1 OSI        -0.1386 
     10 C9        -10.0667    7.7375    5.2264 C.ar      1 OSI         0.0766 
     11 C10        -8.2053    4.6694    4.4284 C.ar      1 OSI         0.5705 
     12 N2         -8.0637    3.9524    5.5626 N.ar      1 OSI        -0.7523 
     13 C11        -7.3151    2.8396    5.4416 C.ar      1 OSI         0.8794 
     14 N3         -6.7109    2.3878    4.3261 N.ar      1 OSI        -0.7276 
     15 C12        -6.8941    3.1527    3.2299 C.ar      1 OSI         0.4615 
     16 C13        -7.6382    4.3147    3.2214 C.ar      1 OSI        -0.4065 
     17 N4         -7.1454    2.0639    6.6092 N.pl3     1 OSI        -0.7307 
     18 C14        -7.6128    2.2136    7.9282 C.ar      1 OSI         0.1854 
     19 C15        -6.8701    1.7262    9.0036 C.ar      1 OSI         0.0087 
     20 C16        -7.3450    1.8804   10.3061 C.ar      1 OSI        -0.1088 
     21 C17        -8.5626    2.5218   10.5331 C.ar      1 OSI         0.0455 
     22 C18        -9.3054    3.0091    9.4577 C.ar      1 OSI         0.1089 
     23 C19        -8.8304    2.8550    8.1552 C.ar      1 OSI        -0.1692 
     24 N5        -10.5273    3.6565    9.6615 N.2       1 OSI        -0.4594 
     25 C20       -11.3860    4.1981    8.6974 C.2       1 OSI         0.6607 
     26 O1        -11.2253    4.2064    7.4827 O.2       1 OSI        -0.5885 
     27 C21       -12.5967    4.8065    9.3216 C.2       1 OSI        -0.2404 
     28 C22       -13.5385    5.3771    8.5638 C.2       1 OSI        -0.1318 
     29 N6         -9.0240    2.6667   11.8606 N.pl3     1 OSI        -0.7102 
     30 C23        -9.8566    1.6454   12.4612 C.3       1 OSI         0.2005 
     31 C24        -8.6577    3.8316   12.6392 C.3       1 OSI         0.2105 
     32 C25        -7.3730    3.6110   13.4127 C.3       1 OSI         0.1398 
     33 N7         -7.0029    4.7637   14.1884 N.4       1 OSI        -0.7456 
     34 C26        -6.3474    5.7829   13.3541 C.3       1 OSI         0.1612 
     35 C27        -6.1152    4.3969   15.3029 C.3       1 OSI         0.1612 
     36 O2         -5.6781    1.0964    8.8026 O.3       1 OSI        -0.3487 
     37 C28        -4.5083    1.9117    8.7953 C.3       1 OSI         0.1129 
     38 H1        -11.2978    7.8541    2.0711 H         1 OSI         0.0514 
     39 H2        -10.8358    9.3150    3.0085 H         1 OSI         0.0514 
     40 H3        -12.2454    8.3270    3.5220 H         1 OSI         0.0514 
     41 H4         -9.8536    5.9989    2.4662 H         1 OSI         0.1770 
     42 H5         -8.0590    5.9728    7.3411 H         1 OSI         0.1380 
     43 H6         -8.7828    7.7922    8.8564 H         1 OSI         0.1297 
     44 H7        -10.3114    9.5603    8.0644 H         1 OSI         0.1297 
     45 H8        -11.1571    9.5522    5.7266 H         1 OSI         0.1315 
     46 H9         -6.4097    2.7934    2.3281 H         1 OSI         0.0298 
     47 H10        -7.7593    4.8995    2.3179 H         1 OSI         0.1589 
     48 H11        -6.5444    1.1432    6.5753 H         1 OSI         0.4660 
     49 H12        -6.7620    1.4983   11.1409 H         1 OSI         0.1439 
     50 H13        -9.4089    3.2354    7.3157 H         1 OSI         0.1989 
     51 H15       -12.7106    4.7827   10.4154 H         1 OSI         0.1312 
     52 H16       -14.4274    5.8229    9.0340 H         1 OSI         0.1300 
     53 H17       -13.4246    5.4009    7.4700 H         1 OSI         0.1300 
     54 H18       -10.1108    1.9382   13.4906 H         1 OSI         0.0302 
     55 H19        -9.3118    0.6899   12.4757 H         1 OSI         0.0302 
     56 H20       -10.7796    1.5324   11.8735 H         1 OSI         0.0302 
     57 H21        -8.5131    4.6908   11.9677 H         1 OSI         0.0544 
     58 H22        -9.4587    4.0589   13.3581 H         1 OSI         0.0544 
     59 H23        -7.5004    2.7621   14.1006 H         1 OSI         0.0349 
     60 H24        -6.5547    3.3941   12.7103 H         1 OSI         0.0349 
     61 H25        -6.0781    6.6487   13.9769 H         1 OSI         0.0304 
     62 H26        -7.0359    6.1035   12.5583 H         1 OSI         0.0304 
     63 H27        -5.4382    5.3584   12.9033 H         1 OSI         0.0304 
     64 H28        -5.8520    5.2993   15.8742 H         1 OSI         0.0304 
     65 H29        -5.1997    3.9345   14.9055 H         1 OSI         0.0304 
     66 H30        -6.6303    3.6827   15.9622 H         1 OSI         0.0304 
     67 H31        -3.6231    1.2814    8.6245 H         1 OSI         0.0398 
     68 H32        -4.4123    2.4239    9.7640 H         1 OSI         0.0398 
     69 H33        -4.5871    2.6588    7.9917 H         1 OSI         0.0398 
     70 H70        -7.9460    5.1659   14.5868 H         1 OSI         0.0000 
     71 H71       -11.9817    4.6680    6.8310 H         1 OSI         0.0000 
@<TRIPOS>BOND
     1    1    2 1    
     2    1   38 1    
     3    1   39 1    
     4    1   40 1    
     5    2   10 ar   
     6    2    3 ar   
     7    3    4 ar   
     8    3   41 1    
     9    4    5 ar   
    10    4   11 1    
    11    5   10 ar   
    12    5    6 ar   
    13    6    7 ar   
    14    6   42 1    
    15    7    8 ar   
    16    7   43 1    
    17    8    9 ar   
    18    8   44 1    
    19    9   10 ar   
    20    9   45 1    
    21   11   16 ar   
    22   11   12 ar   
    23   12   13 ar   
    24   13   14 ar   
    25   13   17 1    
    26   14   15 ar   
    27   15   16 ar   
    28   15   46 1    
    29   16   47 1    
    30   17   18 1    
    31   17   48 1    
    32   18   23 ar   
    33   18   19 ar   
    34   19   20 ar   
    35   19   36 1    
    36   20   21 ar   
    37   20   49 1    
    38   21   22 ar   
    39   21   29 1    
    40   22   23 ar   
    41   22   24 1    
    42   23   50 1    
    43   24   25 1    
    44   25   26 2    
    45   25   27 1    
    46   26   71 1    
    47   27   28 2    
    48   27   51 1    
    49   28   52 1    
    50   28   53 1    
    51   29   30 1    
    52   29   31 1    
    53   30   54 1    
    54   30   55 1    
    55   30   56 1    
    56   31   32 1    
    57   31   57 1    
    58   31   58 1    
    59   32   33 1    
    60   32   59 1    
    61   32   60 1    
    62   33   34 1    
    63   33   35 1    
    64   33   70 1    
    65   34   61 1    
    66   34   62 1    
    67   34   63 1    
    68   35   64 1    
    69   35   65 1    
    70   35   66 1    
    71   36   37 1    
    72   37   67 1    
    73   37   68 1    
    74   37   69 1    
@<TRIPOS>SUBSTRUCTURE
     1 OSI         1 GROUP             0       ****    0 ROOT    
@<TRIPOS>MOLECULE
~{N}-[2-[2-(dimethylamino)ethyl-methyl-amino]-4-methoxy-5-[[4-(1-methylindol-3-yl)pyrimidin-2-yl]amino]phenyl]prop-2-enamide
70   73    1
SMALL
USER_CHARGES


@<TRIPOS>ATOM
      1 C1        -11.2397    8.2942    3.0775 C.3       1 OSI         0.2082 
      2 N1        -10.3716    7.4871    3.9075 N.pl3     1 OSI        -0.4905 
      3 C2         -9.7322    6.3538    3.4818 C.ar      1 OSI         0.0617 
      4 C3         -9.0005    5.8589    4.5366 C.ar      1 OSI        -0.2375 
      5 C4         -9.2027    6.7245    5.6479 C.ar      1 OSI        -0.0629 
      6 C5         -8.7321    6.7433    6.9759 C.ar      1 OSI        -0.0875 
      7 C6         -9.1424    7.7725    7.8310 C.ar      1 OSI        -0.1522 
      8 C7        -10.0056    8.7705    7.3830 C.ar      1 OSI        -0.1170 
      9 C8        -10.4853    8.7726    6.0700 C.ar      1 OSI        -0.1386 
     10 C9        -10.0667    7.7375    5.2264 C.ar      1 OSI         0.0766 
     11 C10        -8.2053    4.6694    4.4284 C.ar      1 OSI         0.5705 
     12 N2         -8.0637    3.9524    5.5626 N.ar      1 OSI        -0.7523 
     13 C11        -7.3151    2.8396    5.4416 C.ar      1 OSI         0.8794 
     14 N3         -6.7109    2.3878    4.3261 N.ar      1 OSI        -0.7276 
     15 C12        -6.8941    3.1527    3.2299 C.ar      1 OSI         0.4615 
     16 C13        -7.6382    4.3147    3.2214 C.ar      1 OSI        -0.4065 
     17 N4         -7.1454    2.0639    6.6092 N.pl3     1 OSI        -0.7307 
     18 C14        -7.6128    2.2136    7.9282 C.ar      1 OSI         0.1854 
     19 C15        -6.8701    1.7262    9.0036 C.ar      1 OSI         0.0087 
     20 C16        -7.3450    1.8804   10.3061 C.ar      1 OSI        -0.1088 
     21 C17        -8.5626    2.5218   10.5331 C.ar      1 OSI         0.0455 
     22 C18        -9.3054    3.0091    9.4577 C.ar      1 OSI         0.1089 
     23 C19        -8.8304    2.8550    8.1552 C.ar      1 OSI        -0.1692 
     24 N5        -10.5273    3.6565    9.6615 N.2       1 OSI        -0.4594 
     25 C20       -11.3860    4.1981    8.6974 C.2       1 OSI         0.6607 
     26 O1        -11.2253    4.2064    7.4827 O.co2     1 OSI        -0.5885 
     27 C21       -12.5967    4.8065    9.3216 C.2       1 OSI        -0.2404 
     28 C22       -13.5385    5.3771    8.5638 C.2       1 OSI        -0.1318 
     29 N6         -9.0240    2.6667   11.8606 N.pl3     1 OSI        -0.7102 
     30 C23        -9.8566    1.6454   12.4612 C.3       1 OSI         0.2005 
     31 C24        -8.6577    3.8316   12.6392 C.3       1 OSI         0.2105 
     32 C25        -7.3730    3.6110   13.4127 C.3       1 OSI         0.1398 
     33 N7         -7.0029    4.7637   14.1884 N.4       1 OSI        -0.7456 
     34 C26        -6.3474    5.7829   13.3541 C.3       1 OSI         0.1612 
     35 C27        -6.1152    4.3969   15.3029 C.3       1 OSI         0.1612 
     36 O2         -5.6781    1.0964    8.8026 O.3       1 OSI        -0.3487 
     37 C28        -4.5083    1.9117    8.7953 C.3       1 OSI         0.1129 
     38 H1        -11.2978    7.8541    2.0711 H         1 OSI         0.0514 
     39 H2        -10.8358    9.3150    3.0085 H         1 OSI         0.0514 
     40 H3        -12.2454    8.3270    3.5220 H         1 OSI         0.0514 
     41 H4         -9.7219    5.8810    2.6007 H         1 OSI         0.1770 
     42 H5         -8.1125    6.0329    7.3098 H         1 OSI         0.1380 
     43 H6         -8.8159    7.7976    8.7759 H         1 OSI         0.1297 
     44 H7        -10.2813    9.4929    8.0172 H         1 OSI         0.1297 
     45 H8        -11.1041    9.4965    5.7649 H         1 OSI         0.1315 
     46 H9         -6.4788    2.8871    2.3598 H         1 OSI         0.0298 
     47 H10        -7.7795    4.8886    2.4147 H         1 OSI         0.1589 
     48 H11        -6.5444    1.1432    6.5753 H         1 OSI         0.4660 
     49 H12        -6.7620    1.4983   11.1409 H         1 OSI         0.1439 
     50 H13        -9.4089    3.2354    7.3157 H         1 OSI         0.1989 
     51 H15       -12.7106    4.7827   10.4154 H         1 OSI         0.1312 
     52 H16       -14.4274    5.8229    9.0340 H         1 OSI         0.1300 
     53 H17       -13.4246    5.4009    7.4700 H         1 OSI         0.1300 
     54 H18       -10.1108    1.9382   13.4906 H         1 OSI         0.0302 
     55 H19        -9.3118    0.6899   12.4757 H         1 OSI         0.0302 
     56 H20       -10.7796    1.5324   11.8735 H         1 OSI         0.0302 
     57 H21        -8.5131    4.6908   11.9677 H         1 OSI         0.0544 
     58 H22        -9.4587    4.0589   13.3581 H         1 OSI         0.0544 
     59 H23        -7.5004    2.7621   14.1006 H         1 OSI         0.0349 
     60 H24        -6.5547    3.3941   12.7103 H         1 OSI         0.0349 
     61 H25        -6.0781    6.6487   13.9769 H         1 OSI         0.0304 
     62 H26        -7.0359    6.1035   12.5583 H         1 OSI         0.0304 
     63 H27        -5.4382    5.3584   12.9033 H         1 OSI         0.0304 
     64 H28        -5.8520    5.2993   15.8742 H         1 OSI         0.0304 
     65 H29        -5.1997    3.9345   14.9055 H         1 OSI         0.0304 
     66 H30        -6.6303    3.6827   15.9622 H         1 OSI         0.0304 
     67 H31        -3.6231    1.2814    8.6245 H         1 OSI         0.0398 
     68 H32        -4.4123    2.4239    9.7640 H         1 OSI         0.0398 
     69 H33        -4.5871    2.6588    7.9917 H         1 OSI         0.0398 
     70 H70        -7.9460    5.1659   14.5868 H         1 OSI         0.0000 
@<TRIPOS>BOND
     1    1    2 1    
     2    1   38 1    
     3    1   39 1    
     4    1   40 1    
     5    2   10 ar   
     6    2    3 ar   
     7    3    4 ar   
     8    3   41 1    
     9    4    5 ar   
    10    4   11 1    
    11    5   10 ar   
    12    5    6 ar   
    13    6    7 ar   
    14    6   42 1    
    15    7    8 ar   
    16    7   43 1    
    17    8    9 ar   
    18    8   44 1    
    19    9   10 ar   
    20    9   45 1    
    21   11   16 ar   
    22   11   12 ar   
    23   12   13 ar   
    24   13   14 ar   
    25   13   17 1    
    26   14   15 ar   
    27   15   16 ar   
    28   15   46 1    
    29   16   47 1    
    30   17   18 1    
    31   17   48 1    
    32   18   23 ar   
    33   18   19 ar   
    34   19   20 ar   
    35   19   36 1    
    36   20   21 ar   
    37   20   49 1    
    38   21   22 ar   
    39   21   29 1    
    40   22   23 ar   
    41   22   24 1    
    42   23   50 1    
    43   24   25 2    
    44   25   26 1    
    45   25   27 1    
    46   27   28 2    
    47   27   51 1    
    48   28   52 1    
    49   28   53 1    
    50   29   30 1    
    51   29   31 1    
    52   30   54 1    
    53   30   55 1    
    54   30   56 1    
    55   31   32 1    
    56   31   57 1    
    57   31   58 1    
    58   32   33 1    
    59   32   59 1    
    60   32   60 1    
    61   33   34 1    
    62   33   35 1    
    63   33   70 1    
    64   34   61 1    
    65   34   62 1    
    66   34   63 1    
    67   35   64 1    
    68   35   65 1    
    69   35   66 1    
    70   36   37 1    
    71   37   67 1    
    72   37   68 1    
    73   37   69 1    
@<TRIPOS>SUBSTRUCTURE
     1 OSI         1 GROUP             0       ****    0 ROOT    
@<TRIPOS>MOLECULE
~{N}-[2-[2-(dimethylamino)ethyl-methyl-amino]-4-methoxy-5-[[4-(1-methylindol-3-yl)pyrimidin-2-yl]amino]phenyl]prop-2-enamide
71   74    1
SMALL
USER_CHARGES


@<TRIPOS>ATOM
      1 C1        -11.2397    8.2942    3.0775 C.3       1 OSI         0.2082 
      2 N1        -10.3716    7.4871    3.9075 N.pl3     1 OSI        -0.4905 
      3 C2         -9.7322    6.3538    3.4818 C.ar      1 OSI         0.0617 
      4 C3         -9.0005    5.8589    4.5366 C.ar      1 OSI        -0.2375 
      5 C4         -9.2027    6.7245    5.6479 C.ar      1 OSI        -0.0629 
      6 C5         -8.7321    6.7433    6.9759 C.ar      1 OSI        -0.0875 
      7 C6         -9.1424    7.7725    7.8310 C.ar      1 OSI        -0.1522 
      8 C7        -10.0056    8.7705    7.3830 C.ar      1 OSI        -0.1170 
      9 C8        -10.4853    8.7726    6.0700 C.ar      1 OSI        -0.1386 
     10 C9        -10.0667    7.7375    5.2264 C.ar      1 OSI         0.0766 
     11 C10        -8.2053    4.6694    4.4284 C.ar      1 OSI         0.5705 
     12 N2         -8.0637    3.9524    5.5626 N.ar      1 OSI        -0.7523 
     13 C11        -7.3151    2.8396    5.4416 C.ar      1 OSI         0.8794 
     14 N3         -6.7109    2.3878    4.3261 N.ar      1 OSI        -0.7276 
     15 C12        -6.8941    3.1527    3.2299 C.ar      1 OSI         0.4615 
     16 C13        -7.6382    4.3147    3.2214 C.ar      1 OSI        -0.4065 
     17 N4         -7.1454    2.0639    6.6092 N.pl3     1 OSI        -0.7307 
     18 C14        -7.6128    2.2136    7.9282 C.ar      1 OSI         0.1854 
     19 C15        -6.8701    1.7262    9.0036 C.ar      1 OSI         0.0087 
     20 C16        -7.3450    1.8804   10.3061 C.ar      1 OSI        -0.1088 
     21 C17        -8.5626    2.5218   10.5331 C.ar      1 OSI         0.0455 
     22 C18        -9.3054    3.0091    9.4577 C.ar      1 OSI         0.1089 
     23 C19        -8.8304    2.8550    8.1552 C.ar      1 OSI        -0.1692 
     24 N5        -10.5273    3.6565    9.6615 N.2       1 OSI        -0.4594 
     25 C20       -11.3860    4.1981    8.6974 C.2       1 OSI         0.6607 
     26 O1        -11.2253    4.2064    7.4827 O.2       1 OSI        -0.5885 
     27 C21       -12.5967    4.8065    9.3216 C.2       1 OSI        -0.2404 
     28 C22       -13.5385    5.3771    8.5638 C.2       1 OSI        -0.1318 
     29 N6         -9.0240    2.6667   11.8606 N.4       1 OSI        -0.7102 
     30 C23        -9.8566    1.6454   12.4612 C.3       1 OSI         0.2005 
     31 C24        -8.6577    3.8316   12.6392 C.3       1 OSI         0.2105 
     32 C25        -7.3730    3.6110   13.4127 C.3       1 OSI         0.1398 
     33 N7         -7.0029    4.7637   14.1884 N.3       1 OSI        -0.7456 
     34 C26        -6.3474    5.7829   13.3541 C.3       1 OSI         0.1612 
     35 C27        -6.1152    4.3969   15.3029 C.3       1 OSI         0.1612 
     36 O2         -5.6781    1.0964    8.8026 O.3       1 OSI        -0.3487 
     37 C28        -4.5083    1.9117    8.7953 C.3       1 OSI         0.1129 
     38 H1        -11.2978    7.8541    2.0711 H         1 OSI         0.0514 
     39 H2        -10.8358    9.3150    3.0085 H         1 OSI         0.0514 
     40 H3        -12.2454    8.3270    3.5220 H         1 OSI         0.0514 
     41 H4         -9.8536    5.9989    2.4662 H         1 OSI         0.1770 
     42 H5         -8.0590    5.9728    7.3411 H         1 OSI         0.1380 
     43 H6         -8.7828    7.7922    8.8564 H         1 OSI         0.1297 
     44 H7        -10.3114    9.5603    8.0644 H         1 OSI         0.1297 
     45 H8        -11.1571    9.5522    5.7266 H         1 OSI         0.1315 
     46 H9         -6.4097    2.7934    2.3281 H         1 OSI         0.0298 
     47 H10        -7.7593    4.8995    2.3179 H         1 OSI         0.1589 
     48 H11        -6.5444    1.1432    6.5753 H         1 OSI         0.4660 
     49 H12        -6.7620    1.4983   11.1409 H         1 OSI         0.1439 
     50 H13        -9.4089    3.2354    7.3157 H         1 OSI         0.1989 
     51 H15       -12.7106    4.7827   10.4154 H         1 OSI         0.1312 
     52 H16       -14.4274    5.8229    9.0340 H         1 OSI         0.1300 
     53 H17       -13.4246    5.4009    7.4700 H         1 OSI         0.1300 
     54 H18       -10.1108    1.9382   13.4906 H         1 OSI         0.0302 
     55 H19        -9.3118    0.6899   12.4757 H         1 OSI         0.0302 
     56 H20       -10.7796    1.5324   11.8735 H         1 OSI         0.0302 
     57 H21        -8.5131    4.6908   11.9677 H         1 OSI         0.0544 
     58 H22        -9.4587    4.0589   13.3581 H         1 OSI         0.0544 
     59 H23        -7.5004    2.7621   14.1006 H         1 OSI         0.0349 
     60 H24        -6.5547    3.3941   12.7103 H         1 OSI         0.0349 
     61 H25        -6.0781    6.6487   13.9769 H         1 OSI         0.0304 
     62 H26        -7.0359    6.1035   12.5583 H         1 OSI         0.0304 
     63 H27        -5.4382    5.3584   12.9033 H         1 OSI         0.0304 
     64 H28        -5.8520    5.2993   15.8742 H         1 OSI         0.0304 
     65 H29        -5.1997    3.9345   14.9055 H         1 OSI         0.0304 
     66 H30        -6.6303    3.6827   15.9622 H         1 OSI         0.0304 
     67 H31        -3.6231    1.2814    8.6245 H         1 OSI         0.0398 
     68 H32        -4.4123    2.4239    9.7640 H         1 OSI         0.0398 
     69 H33        -4.5871    2.6588    7.9917 H         1 OSI         0.0398 
     70 H70       -11.9817    4.6680    6.8310 H         1 OSI         0.0000 
     71 H71        -9.9228    3.1826   11.4919 H         1 OSI         0.0000 
@<TRIPOS>BOND
     1    1    2 1    
     2    1   38 1    
     3    1   39 1    
     4    1   40 1    
     5    2   10 ar   
     6    2    3 ar   
     7    3    4 ar   
     8    3   41 1    
     9    4    5 ar   
    10    4   11 1    
    11    5   10 ar   
    12    5    6 ar   
    13    6    7 ar   
    14    6   42 1    
    15    7    8 ar   
    16    7   43 1    
    17    8    9 ar   
    18    8   44 1    
    19    9   10 ar   
    20    9   45 1    
    21   11   16 ar   
    22   11   12 ar   
    23   12   13 ar   
    24   13   14 ar   
    25   13   17 1    
    26   14   15 ar   
    27   15   16 ar   
    28   15   46 1    
    29   16   47 1    
    30   17   18 1    
    31   17   48 1    
    32   18   23 ar   
    33   18   19 ar   
    34   19   20 ar   
    35   19   36 1    
    36   20   21 ar   
    37   20   49 1    
    38   21   22 ar   
    39   21   29 1    
    40   22   23 ar   
    41   22   24 1    
    42   23   50 1    
    43   24   25 1    
    44   25   26 2    
    45   25   27 1    
    46   26   70 1    
    47   27   28 2    
    48   27   51 1    
    49   28   52 1    
    50   28   53 1    
    51   29   30 1    
    52   29   31 1    
    53   29   71 1    
    54   30   54 1    
    55   30   55 1    
    56   30   56 1    
    57   31   32 1    
    58   31   57 1    
    59   31   58 1    
    60   32   33 1    
    61   32   59 1    
    62   32   60 1    
    63   33   34 1    
    64   33   35 1    
    65   34   61 1    
    66   34   62 1    
    67   34   63 1    
    68   35   64 1    
    69   35   65 1    
    70   35   66 1    
    71   36   37 1    
    72   37   67 1    
    73   37   68 1    
    74   37   69 1    
@<TRIPOS>SUBSTRUCTURE
     1 OSI         1 GROUP             0       ****    0 ROOT    
@<TRIPOS>MOLECULE
~{N}-[2-[2-(dimethylamino)ethyl-methyl-amino]-4-methoxy-5-[[4-(1-methylindol-3-yl)pyrimidin-2-yl]amino]phenyl]prop-2-enamide
72   75    1
SMALL
USER_CHARGES


@<TRIPOS>ATOM
      1 C1        -11.2397    8.2942    3.0775 C.3       1 OSI         0.2082 
      2 N1        -10.3716    7.4871    3.9075 N.pl3     1 OSI        -0.4905 
      3 C2         -9.7322    6.3538    3.4818 C.ar      1 OSI         0.0617 
      4 C3         -9.0005    5.8589    4.5366 C.ar      1 OSI        -0.2375 
      5 C4         -9.2027    6.7245    5.6479 C.ar      1 OSI        -0.0629 
      6 C5         -8.7321    6.7433    6.9759 C.ar      1 OSI        -0.0875 
      7 C6         -9.1424    7.7725    7.8310 C.ar      1 OSI        -0.1522 
      8 C7        -10.0056    8.7705    7.3830 C.ar      1 OSI        -0.1170 
      9 C8        -10.4853    8.7726    6.0700 C.ar      1 OSI        -0.1386 
     10 C9        -10.0667    7.7375    5.2264 C.ar      1 OSI         0.0766 
     11 C10        -8.2053    4.6694    4.4284 C.ar      1 OSI         0.5705 
     12 N2         -8.0637    3.9524    5.5626 N.ar      1 OSI        -0.7523 
     13 C11        -7.3151    2.8396    5.4416 C.ar      1 OSI         0.8794 
     14 N3         -6.7109    2.3878    4.3261 N.ar      1 OSI        -0.7276 
     15 C12        -6.8941    3.1527    3.2299 C.ar      1 OSI         0.4615 
     16 C13        -7.6382    4.3147    3.2214 C.ar      1 OSI        -0.4065 
     17 N4         -7.1454    2.0639    6.6092 N.pl3     1 OSI        -0.7307 
     18 C14        -7.6128    2.2136    7.9282 C.ar      1 OSI         0.1854 
     19 C15        -6.8701    1.7262    9.0036 C.ar      1 OSI         0.0087 
     20 C16        -7.3450    1.8804   10.3061 C.ar      1 OSI        -0.1088 
     21 C17        -8.5626    2.5218   10.5331 C.ar      1 OSI         0.0455 
     22 C18        -9.3054    3.0091    9.4577 C.ar      1 OSI         0.1089 
     23 C19        -8.8304    2.8550    8.1552 C.ar      1 OSI        -0.1692 
     24 N5        -10.5273    3.6565    9.6615 N.am      1 OSI        -0.4594 
     25 C20       -11.3860    4.1981    8.6974 C.2       1 OSI         0.6607 
     26 O1        -11.2253    4.2064    7.4827 O.2       1 OSI        -0.5885 
     27 C21       -12.5967    4.8065    9.3216 C.2       1 OSI        -0.2404 
     28 C22       -13.5385    5.3771    8.5638 C.2       1 OSI        -0.1318 
     29 N6         -9.0240    2.6667   11.8606 N.4       1 OSI        -0.7102 
     30 C23        -9.8566    1.6454   12.4612 C.3       1 OSI         0.2005 
     31 C24        -8.6577    3.8316   12.6392 C.3       1 OSI         0.2105 
     32 C25        -7.3730    3.6110   13.4127 C.3       1 OSI         0.1398 
     33 N7         -7.0029    4.7637   14.1884 N.4       1 OSI        -0.7456 
     34 C26        -6.3474    5.7829   13.3541 C.3       1 OSI         0.1612 
     35 C27        -6.1152    4.3969   15.3029 C.3       1 OSI         0.1612 
     36 O2         -5.6781    1.0964    8.8026 O.3       1 OSI        -0.3487 
     37 C28        -4.5083    1.9117    8.7953 C.3       1 OSI         0.1129 
     38 H1        -11.2978    7.8541    2.0711 H         1 OSI         0.0514 
     39 H2        -10.8358    9.3150    3.0085 H         1 OSI         0.0514 
     40 H3        -12.2454    8.3270    3.5220 H         1 OSI         0.0514 
     41 H4         -9.8536    5.9989    2.4662 H         1 OSI         0.1770 
     42 H5         -8.0590    5.9728    7.3411 H         1 OSI         0.1380 
     43 H6         -8.7828    7.7922    8.8564 H         1 OSI         0.1297 
     44 H7        -10.3114    9.5603    8.0644 H         1 OSI         0.1297 
     45 H8        -11.1571    9.5522    5.7266 H         1 OSI         0.1315 
     46 H9         -6.4097    2.7934    2.3281 H         1 OSI         0.0298 
     47 H10        -7.7593    4.8995    2.3179 H         1 OSI         0.1589 
     48 H11        -6.5444    1.1432    6.5753 H         1 OSI         0.4660 
     49 H12        -6.7620    1.4983   11.1409 H         1 OSI         0.1439 
     50 H13        -9.4089    3.2354    7.3157 H         1 OSI         0.1989 
     51 H14       -10.9166    3.7880   10.6819 H         1 OSI         0.3330 
     52 H15       -12.7106    4.7827   10.4154 H         1 OSI         0.1312 
     53 H16       -14.4274    5.8229    9.0340 H         1 OSI         0.1300 
     54 H17       -13.4246    5.4009    7.4700 H         1 OSI         0.1300 
     55 H18       -10.1108    1.9382   13.4906 H         1 OSI         0.0302 
     56 H19        -9.3118    0.6899   12.4757 H         1 OSI         0.0302 
     57 H20       -10.7796    1.5324   11.8735 H         1 OSI         0.0302 
     58 H21        -8.5131    4.6908   11.9677 H         1 OSI         0.0544 
     59 H22        -9.4587    4.0589   13.3581 H         1 OSI         0.0544 
     60 H23        -7.5004    2.7621   14.1006 H         1 OSI         0.0349 
     61 H24        -6.5547    3.3941   12.7103 H         1 OSI         0.0349 
     62 H25        -6.0781    6.6487   13.9769 H         1 OSI         0.0304 
     63 H26        -7.0359    6.1035   12.5583 H         1 OSI         0.0304 
     64 H27        -5.4382    5.3584   12.9033 H         1 OSI         0.0304 
     65 H28        -5.8520    5.2993   15.8742 H         1 OSI         0.0304 
     66 H29        -5.1997    3.9345   14.9055 H         1 OSI         0.0304 
     67 H30        -6.6303    3.6827   15.9622 H         1 OSI         0.0304 
     68 H31        -3.6231    1.2814    8.6245 H         1 OSI         0.0398 
     69 H32        -4.4123    2.4239    9.7640 H         1 OSI         0.0398 
     70 H33        -4.5871    2.6588    7.9917 H         1 OSI         0.0398 
     71 H71        -7.9460    5.1659   14.5868 H         1 OSI         0.0000 
     72 H72        -9.9228    3.1826   11.4919 H         1 OSI         0.0000 
@<TRIPOS>BOND
     1    1    2 1    
     2    1   38 1    
     3    1   39 1    
     4    1   40 1    
     5    2   10 ar   
     6    2    3 ar   
     7    3    4 ar   
     8    3   41 1    
     9    4    5 ar   
    10    4   11 1    
    11    5   10 ar   
    12    5    6 ar   
    13    6    7 ar   
    14    6   42 1    
    15    7    8 ar   
    16    7   43 1    
    17    8    9 ar   
    18    8   44 1    
    19    9   10 ar   
    20    9   45 1    
    21   11   16 ar   
    22   11   12 ar   
    23   12   13 ar   
    24   13   14 ar   
    25   13   17 1    
    26   14   15 ar   
    27   15   16 ar   
    28   15   46 1    
    29   16   47 1    
    30   17   18 1    
    31   17   48 1    
    32   18   23 ar   
    33   18   19 ar   
    34   19   20 ar   
    35   19   36 1    
    36   20   21 ar   
    37   20   49 1    
    38   21   22 ar   
    39   21   29 1    
    40   22   23 ar   
    41   22   24 1    
    42   23   50 1    
    43   24   25 am   BACKBONE|DICT|INTERRES
    44   24   51 1    
    45   25   26 2    
    46   25   27 1    
    47   27   28 2    
    48   27   52 1    
    49   28   53 1    
    50   28   54 1    
    51   29   30 1    
    52   29   31 1    
    53   29   72 1    
    54   30   55 1    
    55   30   56 1    
    56   30   57 1    
    57   31   32 1    
    58   31   58 1    
    59   31   59 1    
    60   32   33 1    
    61   32   60 1    
    62   32   61 1    
    63   33   34 1    
    64   33   35 1    
    65   33   71 1    
    66   34   62 1    
    67   34   63 1    
    68   34   64 1    
    69   35   65 1    
    70   35   66 1    
    71   35   67 1    
    72   36   37 1    
    73   37   68 1    
    74   37   69 1    
    75   37   70 1    
@<TRIPOS>SUBSTRUCTURE
     1 OSI         1 GROUP             0       ****    0 ROOT    
@<TRIPOS>MOLECULE
~{N}-[2-[2-(dimethylamino)ethyl-methyl-amino]-4-methoxy-5-[[4-(1-methylindol-3-yl)pyrimidin-2-yl]amino]phenyl]prop-2-enamide
72   75    1
SMALL
USER_CHARGES


@<TRIPOS>ATOM
      1 C1        -11.2397    8.2942    3.0775 C.3       1 OSI         0.2082 
      2 N1        -10.3716    7.4871    3.9075 N.pl3     1 OSI        -0.4905 
      3 C2         -9.7322    6.3538    3.4818 C.ar      1 OSI         0.0617 
      4 C3         -9.0005    5.8589    4.5366 C.ar      1 OSI        -0.2375 
      5 C4         -9.2027    6.7245    5.6479 C.ar      1 OSI        -0.0629 
      6 C5         -8.7321    6.7433    6.9759 C.ar      1 OSI        -0.0875 
      7 C6         -9.1424    7.7725    7.8310 C.ar      1 OSI        -0.1522 
      8 C7        -10.0056    8.7705    7.3830 C.ar      1 OSI        -0.1170 
      9 C8        -10.4853    8.7726    6.0700 C.ar      1 OSI        -0.1386 
     10 C9        -10.0667    7.7375    5.2264 C.ar      1 OSI         0.0766 
     11 C10        -8.2053    4.6694    4.4284 C.ar      1 OSI         0.5705 
     12 N2         -8.0637    3.9524    5.5626 N.ar      1 OSI        -0.7523 
     13 C11        -7.3151    2.8396    5.4416 C.ar      1 OSI         0.8794 
     14 N3         -6.7109    2.3878    4.3261 N.ar      1 OSI        -0.7276 
     15 C12        -6.8941    3.1527    3.2299 C.ar      1 OSI         0.4615 
     16 C13        -7.6382    4.3147    3.2214 C.ar      1 OSI        -0.4065 
     17 N4         -7.1454    2.0639    6.6092 N.pl3     1 OSI        -0.7307 
     18 C14        -7.6128    2.2136    7.9282 C.ar      1 OSI         0.1854 
     19 C15        -6.8701    1.7262    9.0036 C.ar      1 OSI         0.0087 
     20 C16        -7.3450    1.8804   10.3061 C.ar      1 OSI        -0.1088 
     21 C17        -8.5626    2.5218   10.5331 C.ar      1 OSI         0.0455 
     22 C18        -9.3054    3.0091    9.4577 C.ar      1 OSI         0.1089 
     23 C19        -8.8304    2.8550    8.1552 C.ar      1 OSI        -0.1692 
     24 N5        -10.5273    3.6565    9.6615 N.am      1 OSI        -0.4594 
     25 C20       -11.3860    4.1981    8.6974 C.2       1 OSI         0.6607 
     26 O1        -11.2253    4.2064    7.4827 O.2       1 OSI        -0.5885 
     27 C21       -12.5967    4.8065    9.3216 C.2       1 OSI        -0.2404 
     28 C22       -13.5385    5.3771    8.5638 C.2       1 OSI        -0.1318 
     29 N6         -9.0240    2.6667   11.8606 N.pl3     1 OSI        -0.7102 
     30 C23        -9.8566    1.6454   12.4612 C.3       1 OSI         0.2005 
     31 C24        -8.6577    3.8316   12.6392 C.3       1 OSI         0.2105 
     32 C25        -7.3730    3.6110   13.4127 C.3       1 OSI         0.1398 
     33 N7         -7.0029    4.7637   14.1884 N.4       1 OSI        -0.7456 
     34 C26        -6.3474    5.7829   13.3541 C.3       1 OSI         0.1612 
     35 C27        -6.1152    4.3969   15.3029 C.3       1 OSI         0.1612 
     36 O2         -5.6781    1.0964    8.8026 O.3       1 OSI        -0.3487 
     37 C28        -4.5083    1.9117    8.7953 C.3       1 OSI         0.1129 
     38 H1        -11.2978    7.8541    2.0711 H         1 OSI         0.0514 
     39 H2        -10.8358    9.3150    3.0085 H         1 OSI         0.0514 
     40 H3        -12.2454    8.3270    3.5220 H         1 OSI         0.0514 
     41 H4         -9.8536    5.9989    2.4662 H         1 OSI         0.1770 
     42 H5         -8.0590    5.9728    7.3411 H         1 OSI         0.1380 
     43 H6         -8.7828    7.7922    8.8564 H         1 OSI         0.1297 
     44 H7        -10.3114    9.5603    8.0644 H         1 OSI         0.1297 
     45 H8        -11.1571    9.5522    5.7266 H         1 OSI         0.1315 
     46 H9         -6.4097    2.7934    2.3281 H         1 OSI         0.0298 
     47 H10        -7.7593    4.8995    2.3179 H         1 OSI         0.1589 
     48 H11        -6.5444    1.1432    6.5753 H         1 OSI         0.4660 
     49 H12        -6.7620    1.4983   11.1409 H         1 OSI         0.1439 
     50 H13        -9.4089    3.2354    7.3157 H         1 OSI         0.1989 
     51 H14       -10.9166    3.7880   10.6819 H         1 OSI         0.3330 
     52 H15       -12.7106    4.7827   10.4154 H         1 OSI         0.1312 
     53 H16       -14.4274    5.8229    9.0340 H         1 OSI         0.1300 
     54 H17       -13.4246    5.4009    7.4700 H         1 OSI         0.1300 
     55 H18       -10.1108    1.9382   13.4906 H         1 OSI         0.0302 
     56 H19        -9.3118    0.6899   12.4757 H         1 OSI         0.0302 
     57 H20       -10.7796    1.5324   11.8735 H         1 OSI         0.0302 
     58 H21        -8.5131    4.6908   11.9677 H         1 OSI         0.0544 
     59 H22        -9.4587    4.0589   13.3581 H         1 OSI         0.0544 
     60 H23        -7.5004    2.7621   14.1006 H         1 OSI         0.0349 
     61 H24        -6.5547    3.3941   12.7103 H         1 OSI         0.0349 
     62 H25        -6.0781    6.6487   13.9769 H         1 OSI         0.0304 
     63 H26        -7.0359    6.1035   12.5583 H         1 OSI         0.0304 
     64 H27        -5.4382    5.3584   12.9033 H         1 OSI         0.0304 
     65 H28        -5.8520    5.2993   15.8742 H         1 OSI         0.0304 
     66 H29        -5.1997    3.9345   14.9055 H         1 OSI         0.0304 
     67 H30        -6.6303    3.6827   15.9622 H         1 OSI         0.0304 
     68 H31        -3.6231    1.2814    8.6245 H         1 OSI         0.0398 
     69 H32        -4.4123    2.4239    9.7640 H         1 OSI         0.0398 
     70 H33        -4.5871    2.6588    7.9917 H         1 OSI         0.0398 
     71 H71        -7.9460    5.1659   14.5868 H         1 OSI         0.0000 
     72 H72       -11.9817    4.6680    6.8310 H         1 OSI         0.0000 
@<TRIPOS>BOND
     1    1    2 1    
     2    1   38 1    
     3    1   39 1    
     4    1   40 1    
     5    2   10 ar   
     6    2    3 ar   
     7    3    4 ar   
     8    3   41 1    
     9    4    5 ar   
    10    4   11 1    
    11    5   10 ar   
    12    5    6 ar   
    13    6    7 ar   
    14    6   42 1    
    15    7    8 ar   
    16    7   43 1    
    17    8    9 ar   
    18    8   44 1    
    19    9   10 ar   
    20    9   45 1    
    21   11   16 ar   
    22   11   12 ar   
    23   12   13 ar   
    24   13   14 ar   
    25   13   17 1    
    26   14   15 ar   
    27   15   16 ar   
    28   15   46 1    
    29   16   47 1    
    30   17   18 1    
    31   17   48 1    
    32   18   23 ar   
    33   18   19 ar   
    34   19   20 ar   
    35   19   36 1    
    36   20   21 ar   
    37   20   49 1    
    38   21   22 ar   
    39   21   29 1    
    40   22   23 ar   
    41   22   24 1    
    42   23   50 1    
    43   24   25 am   BACKBONE|DICT|INTERRES
    44   24   51 1    
    45   25   26 2    
    46   25   27 1    
    47   26   72 1    
    48   27   28 2    
    49   27   52 1    
    50   28   53 1    
    51   28   54 1    
    52   29   30 1    
    53   29   31 1    
    54   30   55 1    
    55   30   56 1    
    56   30   57 1    
    57   31   32 1    
    58   31   58 1    
    59   31   59 1    
    60   32   33 1    
    61   32   60 1    
    62   32   61 1    
    63   33   34 1    
    64   33   35 1    
    65   33   71 1    
    66   34   62 1    
    67   34   63 1    
    68   34   64 1    
    69   35   65 1    
    70   35   66 1    
    71   35   67 1    
    72   36   37 1    
    73   37   68 1    
    74   37   69 1    
    75   37   70 1    
@<TRIPOS>SUBSTRUCTURE
     1 OSI         1 GROUP             0       ****    0 ROOT    
@<TRIPOS>MOLECULE
~{N}-[2-[2-(dimethylamino)ethyl-methyl-amino]-4-methoxy-5-[[4-(1-methylindol-3-yl)pyrimidin-2-yl]amino]phenyl]prop-2-enamide
72   75    1
SMALL
USER_CHARGES


@<TRIPOS>ATOM
      1 C1        -11.2485    8.2871    3.0758 C.3       1 OSI         0.2082 
      2 N1        -10.3788    7.4818    3.9058 N.pl3     1 OSI        -0.4905 
      3 C2         -9.7382    6.3490    3.4806 C.ar      1 OSI         0.0617 
      4 C3         -9.0051    5.8559    4.5353 C.ar      1 OSI        -0.2375 
      5 C4         -9.2076    6.7222    5.6460 C.ar      1 OSI        -0.0629 
      6 C5         -8.7361    6.7427    6.9737 C.ar      1 OSI        -0.0875 
      7 C6         -9.1471    7.7721    7.8282 C.ar      1 OSI        -0.1522 
      8 C7        -10.0119    8.7686    7.3800 C.ar      1 OSI        -0.1170 
      9 C8        -10.4926    8.7690    6.0673 C.ar      1 OSI        -0.1386 
     10 C9        -10.0732    7.7337    5.2243 C.ar      1 OSI         0.0766 
     11 C10        -8.2084    4.6674    4.4275 C.ar      1 OSI         0.5705 
     12 N2         -8.0653    3.9514    5.5622 N.ar      1 OSI        -0.7523 
     13 C11        -7.3151    2.8396    5.4416 C.ar      1 OSI         0.8794 
     14 N3         -6.7095    2.3887    4.3265 N.ar      1 OSI        -0.7276 
     15 C12        -6.8928    3.1535    3.2303 C.ar      1 OSI         0.4615 
     16 C13        -7.6410    4.3129    3.2206 C.ar      1 OSI        -0.4065 
     17 N4         -7.1454    2.0639    6.6092 N.pl3     1 OSI        -0.7307 
     18 C14        -7.6128    2.2136    7.9282 C.ar      1 OSI         0.1854 
     19 C15        -6.8701    1.7262    9.0036 C.ar      1 OSI         0.0087 
     20 C16        -7.3450    1.8804   10.3061 C.ar      1 OSI        -0.1088 
     21 C17        -8.5626    2.5218   10.5331 C.ar      1 OSI         0.0455 
     22 C18        -9.3054    3.0091    9.4577 C.ar      1 OSI         0.1089 
     23 C19        -8.8304    2.8550    8.1552 C.ar      1 OSI        -0.1692 
     24 N5        -10.5273    3.6565    9.6615 N.pl3     1 OSI        -0.4594 
     25 C20       -11.3860    4.1981    8.6974 C.cat     1 OSI         0.6607 
     26 O1        -11.2253    4.2064    7.4827 O.3       1 OSI        -0.5885 
     27 C21       -12.5967    4.8065    9.3216 C.2       1 OSI        -0.2404 
     28 C22       -13.5385    5.3771    8.5638 C.2       1 OSI        -0.1318 
     29 N6         -9.0240    2.6667   11.8606 N.pl3     1 OSI        -0.7102 
     30 C23        -9.8566    1.6454   12.4612 C.3       1 OSI         0.2005 
     31 C24        -8.6577    3.8316   12.6392 C.3       1 OSI         0.2105 
     32 C25        -7.3730    3.6110   13.4127 C.3       1 OSI         0.1398 
     33 N7         -7.0029    4.7637   14.1884 N.4       1 OSI        -0.7456 
     34 C26        -6.3474    5.7829   13.3541 C.3       1 OSI         0.1612 
     35 C27        -6.1152    4.3969   15.3029 C.3       1 OSI         0.1612 
     36 O2         -5.6781    1.0964    8.8026 O.3       1 OSI        -0.3487 
     37 C28        -4.5083    1.9117    8.7953 C.3       1 OSI         0.1129 
     38 H1        -11.3068    7.8461    2.0698 H         1 OSI         0.0514 
     39 H2        -10.8460    9.3084    3.0057 H         1 OSI         0.0514 
     40 H3        -12.2539    8.3190    3.5210 H         1 OSI         0.0514 
     41 H4         -9.7279    5.8755    2.5999 H         1 OSI         0.1770 
     42 H5         -8.1153    6.0334    7.3077 H         1 OSI         0.1380 
     43 H6         -8.8199    7.7984    8.7728 H         1 OSI         0.1297 
     44 H7        -10.2881    9.4911    8.0138 H         1 OSI         0.1297 
     45 H8        -11.1125    9.4918    5.7621 H         1 OSI         0.1315 
     46 H9         -6.4493    2.8377    2.3915 H         1 OSI         0.0298 
     47 H10        -7.7425    4.8355    2.3741 H         1 OSI         0.1589 
     48 H12        -6.7620    1.4983   11.1409 H         1 OSI         0.1439 
     49 H13        -9.4089    3.2354    7.3157 H         1 OSI         0.1989 
     50 H15       -12.7106    4.7827   10.4154 H         1 OSI         0.1312 
     51 H16       -14.4274    5.8229    9.0340 H         1 OSI         0.1300 
     52 H17       -13.4246    5.4009    7.4700 H         1 OSI         0.1300 
     53 H18       -10.1108    1.9382   13.4906 H         1 OSI         0.0302 
     54 H19        -9.3118    0.6899   12.4757 H         1 OSI         0.0302 
     55 H20       -10.7796    1.5324   11.8735 H         1 OSI         0.0302 
     56 H21        -8.5131    4.6908   11.9677 H         1 OSI         0.0544 
     57 H22        -9.4587    4.0589   13.3581 H         1 OSI         0.0544 
     58 H23        -7.5004    2.7621   14.1006 H         1 OSI         0.0349 
     59 H24        -6.5547    3.3941   12.7103 H         1 OSI         0.0349 
     60 H25        -6.0781    6.6487   13.9769 H         1 OSI         0.0304 
     61 H26        -7.0359    6.1035   12.5583 H         1 OSI         0.0304 
     62 H27        -5.4382    5.3584   12.9033 H         1 OSI         0.0304 
     63 H28        -5.8520    5.2993   15.8742 H         1 OSI         0.0304 
     64 H29        -5.1997    3.9345   14.9055 H         1 OSI         0.0304 
     65 H30        -6.6303    3.6827   15.9622 H         1 OSI         0.0304 
     66 H31        -3.6231    1.2814    8.6245 H         1 OSI         0.0398 
     67 H32        -4.4123    2.4239    9.7640 H         1 OSI         0.0398 
     68 H33        -4.5871    2.6588    7.9917 H         1 OSI         0.0398 
     69 H69        -7.9460    5.1659   14.5868 H         1 OSI         0.0000 
     70 H70       -11.9817    4.6680    6.8310 H         1 OSI         0.0000 
     71 H71        -6.5444    1.1432    6.5753 H         1 OSI         0.0000 
     72 H72       -10.7904    3.7159   10.7279 H         1 OSI         0.0000 
@<TRIPOS>BOND
     1    1    2 1    
     2    1   38 1    
     3    1   39 1    
     4    1   40 1    
     5    2   10 ar   
     6    2    3 ar   
     7    3    4 ar   
     8    3   41 1    
     9    4    5 ar   
    10    4   11 1    
    11    5   10 ar   
    12    5    6 ar   
    13    6    7 ar   
    14    6   42 1    
    15    7    8 ar   
    16    7   43 1    
    17    8    9 ar   
    18    8   44 1    
    19    9   10 ar   
    20    9   45 1    
    21   11   16 ar   
    22   11   12 ar   
    23   12   13 ar   
    24   13   17 1    
    25   13   14 ar   
    26   14   15 ar   
    27   15   46 1    
    28   15   16 ar   
    29   16   47 1    
    30   17   18 1    
    31   17   71 1    
    32   18   23 ar   
    33   18   19 ar   
    34   19   20 ar   
    35   19   36 1    
    36   20   21 ar   
    37   20   48 1    
    38   21   22 ar   
    39   21   29 1    
    40   22   23 ar   
    41   22   24 1    
    42   23   49 1    
    43   24   25 ar   
    44   24   72 1    
    45   25   26 1    
    46   25   27 1    
    47   26   70 1    
    48   27   28 2    
    49   27   50 1    
    50   28   51 1    
    51   28   52 1    
    52   29   30 1    
    53   29   31 1    
    54   30   53 1    
    55   30   54 1    
    56   30   55 1    
    57   31   32 1    
    58   31   56 1    
    59   31   57 1    
    60   32   33 1    
    61   32   58 1    
    62   32   59 1    
    63   33   34 1    
    64   33   35 1    
    65   33   69 1    
    66   34   60 1    
    67   34   61 1    
    68   34   62 1    
    69   35   63 1    
    70   35   64 1    
    71   35   65 1    
    72   36   37 1    
    73   37   66 1    
    74   37   67 1    
    75   37   68 1    
@<TRIPOS>SUBSTRUCTURE
     1 OSI         1 GROUP             0       ****    0 ROOT    
@<TRIPOS>MOLECULE
~{N}-[2-[2-(dimethylamino)ethyl-methyl-amino]-4-methoxy-5-[[4-(1-methylindol-3-yl)pyrimidin-2-yl]amino]phenyl]prop-2-enamide
70   73    1
SMALL
USER_CHARGES


@<TRIPOS>ATOM
      1 C1        -11.2485    8.2871    3.0758 C.3       1 OSI         0.2082 
      2 N1        -10.3788    7.4818    3.9058 N.pl3     1 OSI        -0.4905 
      3 C2         -9.7382    6.3490    3.4806 C.ar      1 OSI         0.0617 
      4 C3         -9.0051    5.8559    4.5353 C.ar      1 OSI        -0.2375 
      5 C4         -9.2076    6.7222    5.6460 C.ar      1 OSI        -0.0629 
      6 C5         -8.7361    6.7427    6.9737 C.ar      1 OSI        -0.0875 
      7 C6         -9.1471    7.7721    7.8282 C.ar      1 OSI        -0.1522 
      8 C7        -10.0119    8.7686    7.3800 C.ar      1 OSI        -0.1170 
      9 C8        -10.4926    8.7690    6.0673 C.ar      1 OSI        -0.1386 
     10 C9        -10.0732    7.7337    5.2243 C.ar      1 OSI         0.0766 
     11 C10        -8.2084    4.6674    4.4275 C.ar      1 OSI         0.5705 
     12 N2         -8.0653    3.9514    5.5622 N.ar      1 OSI        -0.7523 
     13 C11        -7.3151    2.8396    5.4416 C.ar      1 OSI         0.8794 
     14 N3         -6.7095    2.3887    4.3265 N.ar      1 OSI        -0.7276 
     15 C12        -6.8928    3.1535    3.2303 C.ar      1 OSI         0.4615 
     16 C13        -7.6410    4.3129    3.2206 C.ar      1 OSI        -0.4065 
     17 N4         -7.1454    2.0639    6.6092 N.pl3     1 OSI        -0.7307 
     18 C14        -7.6128    2.2136    7.9282 C.ar      1 OSI         0.1854 
     19 C15        -6.8701    1.7262    9.0036 C.ar      1 OSI         0.0087 
     20 C16        -7.3450    1.8804   10.3061 C.ar      1 OSI        -0.1088 
     21 C17        -8.5626    2.5218   10.5331 C.ar      1 OSI         0.0455 
     22 C18        -9.3054    3.0091    9.4577 C.ar      1 OSI         0.1089 
     23 C19        -8.8304    2.8550    8.1552 C.ar      1 OSI        -0.1692 
     24 N5        -10.5273    3.6565    9.6615 N.2       1 OSI        -0.4594 
     25 C20       -11.3860    4.1981    8.6974 C.2       1 OSI         0.6607 
     26 O1        -11.2253    4.2064    7.4827 O.3       1 OSI        -0.5885 
     27 C21       -12.5967    4.8065    9.3216 C.2       1 OSI        -0.2404 
     28 C22       -13.5385    5.3771    8.5638 C.2       1 OSI        -0.1318 
     29 N6         -9.0240    2.6667   11.8606 N.pl3     1 OSI        -0.7102 
     30 C23        -9.8566    1.6454   12.4612 C.3       1 OSI         0.2005 
     31 C24        -8.6577    3.8316   12.6392 C.3       1 OSI         0.2105 
     32 C25        -7.3730    3.6110   13.4127 C.3       1 OSI         0.1398 
     33 N7         -7.0029    4.7637   14.1884 N.3       1 OSI        -0.7456 
     34 C26        -6.3474    5.7829   13.3541 C.3       1 OSI         0.1612 
     35 C27        -6.1152    4.3969   15.3029 C.3       1 OSI         0.1612 
     36 O2         -5.6781    1.0964    8.8026 O.3       1 OSI        -0.3487 
     37 C28        -4.5083    1.9117    8.7953 C.3       1 OSI         0.1129 
     38 H1        -11.3068    7.8461    2.0698 H         1 OSI         0.0514 
     39 H2        -10.8460    9.3084    3.0057 H         1 OSI         0.0514 
     40 H3        -12.2539    8.3190    3.5210 H         1 OSI         0.0514 
     41 H4         -9.7279    5.8755    2.5999 H         1 OSI         0.1770 
     42 H5         -8.1153    6.0334    7.3077 H         1 OSI         0.1380 
     43 H6         -8.8199    7.7984    8.7728 H         1 OSI         0.1297 
     44 H7        -10.2881    9.4911    8.0138 H         1 OSI         0.1297 
     45 H8        -11.1125    9.4918    5.7621 H         1 OSI         0.1315 
     46 H9         -6.4493    2.8377    2.3915 H         1 OSI         0.0298 
     47 H10        -7.7425    4.8355    2.3741 H         1 OSI         0.1589 
     48 H12        -6.7620    1.4983   11.1409 H         1 OSI         0.1439 
     49 H13        -9.4089    3.2354    7.3157 H         1 OSI         0.1989 
     50 H15       -12.7106    4.7827   10.4154 H         1 OSI         0.1312 
     51 H16       -14.4274    5.8229    9.0340 H         1 OSI         0.1300 
     52 H17       -13.4246    5.4009    7.4700 H         1 OSI         0.1300 
     53 H18       -10.1108    1.9382   13.4906 H         1 OSI         0.0302 
     54 H19        -9.3118    0.6899   12.4757 H         1 OSI         0.0302 
     55 H20       -10.7796    1.5324   11.8735 H         1 OSI         0.0302 
     56 H21        -8.5131    4.6908   11.9677 H         1 OSI         0.0544 
     57 H22        -9.4587    4.0589   13.3581 H         1 OSI         0.0544 
     58 H23        -7.5004    2.7621   14.1006 H         1 OSI         0.0349 
     59 H24        -6.5547    3.3941   12.7103 H         1 OSI         0.0349 
     60 H25        -6.0781    6.6487   13.9769 H         1 OSI         0.0304 
     61 H26        -7.0359    6.1035   12.5583 H         1 OSI         0.0304 
     62 H27        -5.4382    5.3584   12.9033 H         1 OSI         0.0304 
     63 H28        -5.8520    5.2993   15.8742 H         1 OSI         0.0304 
     64 H29        -5.1997    3.9345   14.9055 H         1 OSI         0.0304 
     65 H30        -6.6303    3.6827   15.9622 H         1 OSI         0.0304 
     66 H31        -3.6231    1.2814    8.6245 H         1 OSI         0.0398 
     67 H32        -4.4123    2.4239    9.7640 H         1 OSI         0.0398 
     68 H33        -4.5871    2.6588    7.9917 H         1 OSI         0.0398 
     69 H69       -11.9817    4.6680    6.8310 H         1 OSI         0.0000 
     70 H70        -6.5444    1.1432    6.5753 H         1 OSI         0.0000 
@<TRIPOS>BOND
     1    1    2 1    
     2    1   38 1    
     3    1   39 1    
     4    1   40 1    
     5    2   10 ar   
     6    2    3 ar   
     7    3    4 ar   
     8    3   41 1    
     9    4    5 ar   
    10    4   11 1    
    11    5   10 ar   
    12    5    6 ar   
    13    6    7 ar   
    14    6   42 1    
    15    7    8 ar   
    16    7   43 1    
    17    8    9 ar   
    18    8   44 1    
    19    9   10 ar   
    20    9   45 1    
    21   11   16 ar   
    22   11   12 ar   
    23   12   13 ar   
    24   13   17 1    
    25   13   14 ar   
    26   14   15 ar   
    27   15   46 1    
    28   15   16 ar   
    29   16   47 1    
    30   17   18 1    
    31   17   70 1    
    32   18   23 ar   
    33   18   19 ar   
    34   19   20 ar   
    35   19   36 1    
    36   20   21 ar   
    37   20   48 1    
    38   21   22 ar   
    39   21   29 1    
    40   22   23 ar   
    41   22   24 1    
    42   23   49 1    
    43   24   25 2    
    44   25   26 1    
    45   25   27 1    
    46   26   69 1    
    47   27   28 2    
    48   27   50 1    
    49   28   51 1    
    50   28   52 1    
    51   29   30 1    
    52   29   31 1    
    53   30   53 1    
    54   30   54 1    
    55   30   55 1    
    56   31   32 1    
    57   31   56 1    
    58   31   57 1    
    59   32   33 1    
    60   32   58 1    
    61   32   59 1    
    62   33   34 1    
    63   33   35 1    
    64   34   60 1    
    65   34   61 1    
    66   34   62 1    
    67   35   63 1    
    68   35   64 1    
    69   35   65 1    
    70   36   37 1    
    71   37   66 1    
    72   37   67 1    
    73   37   68 1    
@<TRIPOS>SUBSTRUCTURE
     1 OSI         1 GROUP             0       ****    0 ROOT    
@<TRIPOS>MOLECULE
~{N}-[2-[2-(dimethylamino)ethyl-methyl-amino]-4-methoxy-5-[[4-(1-methylindol-3-yl)pyrimidin-2-yl]amino]phenyl]prop-2-enamide
70   73    1
SMALL
USER_CHARGES


@<TRIPOS>ATOM
      1 C1        -11.2397    8.2942    3.0775 C.3       1 OSI         0.2082 
      2 N1        -10.3716    7.4871    3.9075 N.pl3     1 OSI        -0.4905 
      3 C2         -9.7322    6.3538    3.4818 C.ar      1 OSI         0.0617 
      4 C3         -9.0005    5.8589    4.5366 C.ar      1 OSI        -0.2375 
      5 C4         -9.2027    6.7245    5.6479 C.ar      1 OSI        -0.0629 
      6 C5         -8.7321    6.7433    6.9759 C.ar      1 OSI        -0.0875 
      7 C6         -9.1424    7.7725    7.8310 C.ar      1 OSI        -0.1522 
      8 C7        -10.0056    8.7705    7.3830 C.ar      1 OSI        -0.1170 
      9 C8        -10.4853    8.7726    6.0700 C.ar      1 OSI        -0.1386 
     10 C9        -10.0667    7.7375    5.2264 C.ar      1 OSI         0.0766 
     11 C10        -8.2053    4.6694    4.4284 C.ar      1 OSI         0.5705 
     12 N2         -8.0637    3.9524    5.5626 N.ar      1 OSI        -0.7523 
     13 C11        -7.3151    2.8396    5.4416 C.ar      1 OSI         0.8794 
     14 N3         -6.7109    2.3878    4.3261 N.ar      1 OSI        -0.7276 
     15 C12        -6.8941    3.1527    3.2299 C.ar      1 OSI         0.4615 
     16 C13        -7.6382    4.3147    3.2214 C.ar      1 OSI        -0.4065 
     17 N4         -7.1454    2.0639    6.6092 N.pl3     1 OSI        -0.7307 
     18 C14        -7.6128    2.2136    7.9282 C.ar      1 OSI         0.1854 
     19 C15        -6.8701    1.7262    9.0036 C.ar      1 OSI         0.0087 
     20 C16        -7.3450    1.8804   10.3061 C.ar      1 OSI        -0.1088 
     21 C17        -8.5626    2.5218   10.5331 C.ar      1 OSI         0.0455 
     22 C18        -9.3054    3.0091    9.4577 C.ar      1 OSI         0.1089 
     23 C19        -8.8304    2.8550    8.1552 C.ar      1 OSI        -0.1692 
     24 N5        -10.5273    3.6565    9.6615 N.2       1 OSI        -0.4594 
     25 C20       -11.3860    4.1981    8.6974 C.2       1 OSI         0.6607 
     26 O1        -11.2253    4.2064    7.4827 O.2       1 OSI        -0.5885 
     27 C21       -12.5967    4.8065    9.3216 C.2       1 OSI        -0.2404 
     28 C22       -13.5385    5.3771    8.5638 C.2       1 OSI        -0.1318 
     29 N6         -9.0240    2.6667   11.8606 N.pl3     1 OSI        -0.7102 
     30 C23        -9.8566    1.6454   12.4612 C.3       1 OSI         0.2005 
     31 C24        -8.6577    3.8316   12.6392 C.3       1 OSI         0.2105 
     32 C25        -7.3730    3.6110   13.4127 C.3       1 OSI         0.1398 
     33 N7         -7.0029    4.7637   14.1884 N.3       1 OSI        -0.7456 
     34 C26        -6.3474    5.7829   13.3541 C.3       1 OSI         0.1612 
     35 C27        -6.1152    4.3969   15.3029 C.3       1 OSI         0.1612 
     36 O2         -5.6781    1.0964    8.8026 O.3       1 OSI        -0.3487 
     37 C28        -4.5083    1.9117    8.7953 C.3       1 OSI         0.1129 
     38 H1        -11.2978    7.8541    2.0711 H         1 OSI         0.0514 
     39 H2        -10.8358    9.3150    3.0085 H         1 OSI         0.0514 
     40 H3        -12.2454    8.3270    3.5220 H         1 OSI         0.0514 
     41 H4         -9.8536    5.9989    2.4662 H         1 OSI         0.1770 
     42 H5         -8.0590    5.9728    7.3411 H         1 OSI         0.1380 
     43 H6         -8.7828    7.7922    8.8564 H         1 OSI         0.1297 
     44 H7        -10.3114    9.5603    8.0644 H         1 OSI         0.1297 
     45 H8        -11.1571    9.5522    5.7266 H         1 OSI         0.1315 
     46 H9         -6.4097    2.7934    2.3281 H         1 OSI         0.0298 
     47 H10        -7.7593    4.8995    2.3179 H         1 OSI         0.1589 
     48 H11        -6.5444    1.1432    6.5753 H         1 OSI         0.4660 
     49 H12        -6.7620    1.4983   11.1409 H         1 OSI         0.1439 
     50 H13        -9.4089    3.2354    7.3157 H         1 OSI         0.1989 
     51 H15       -12.7106    4.7827   10.4154 H         1 OSI         0.1312 
     52 H16       -14.4274    5.8229    9.0340 H         1 OSI         0.1300 
     53 H17       -13.4246    5.4009    7.4700 H         1 OSI         0.1300 
     54 H18       -10.1108    1.9382   13.4906 H         1 OSI         0.0302 
     55 H19        -9.3118    0.6899   12.4757 H         1 OSI         0.0302 
     56 H20       -10.7796    1.5324   11.8735 H         1 OSI         0.0302 
     57 H21        -8.5131    4.6908   11.9677 H         1 OSI         0.0544 
     58 H22        -9.4587    4.0589   13.3581 H         1 OSI         0.0544 
     59 H23        -7.5004    2.7621   14.1006 H         1 OSI         0.0349 
     60 H24        -6.5547    3.3941   12.7103 H         1 OSI         0.0349 
     61 H25        -6.0781    6.6487   13.9769 H         1 OSI         0.0304 
     62 H26        -7.0359    6.1035   12.5583 H         1 OSI         0.0304 
     63 H27        -5.4382    5.3584   12.9033 H         1 OSI         0.0304 
     64 H28        -5.8520    5.2993   15.8742 H         1 OSI         0.0304 
     65 H29        -5.1997    3.9345   14.9055 H         1 OSI         0.0304 
     66 H30        -6.6303    3.6827   15.9622 H         1 OSI         0.0304 
     67 H31        -3.6231    1.2814    8.6245 H         1 OSI         0.0398 
     68 H32        -4.4123    2.4239    9.7640 H         1 OSI         0.0398 
     69 H33        -4.5871    2.6588    7.9917 H         1 OSI         0.0398 
     70 H70       -11.9817    4.6680    6.8310 H         1 OSI         0.0000 
@<TRIPOS>BOND
     1    1    2 1    
     2    1   38 1    
     3    1   39 1    
     4    1   40 1    
     5    2   10 ar   
     6    2    3 ar   
     7    3    4 ar   
     8    3   41 1    
     9    4    5 ar   
    10    4   11 1    
    11    5   10 ar   
    12    5    6 ar   
    13    6    7 ar   
    14    6   42 1    
    15    7    8 ar   
    16    7   43 1    
    17    8    9 ar   
    18    8   44 1    
    19    9   10 ar   
    20    9   45 1    
    21   11   16 ar   
    22   11   12 ar   
    23   12   13 ar   
    24   13   14 ar   
    25   13   17 1    
    26   14   15 ar   
    27   15   16 ar   
    28   15   46 1    
    29   16   47 1    
    30   17   18 1    
    31   17   48 1    
    32   18   23 ar   
    33   18   19 ar   
    34   19   20 ar   
    35   19   36 1    
    36   20   21 ar   
    37   20   49 1    
    38   21   22 ar   
    39   21   29 1    
    40   22   23 ar   
    41   22   24 1    
    42   23   50 1    
    43   24   25 1    
    44   25   26 2    
    45   25   27 1    
    46   26   70 1    
    47   27   28 2    
    48   27   51 1    
    49   28   52 1    
    50   28   53 1    
    51   29   30 1    
    52   29   31 1    
    53   30   54 1    
    54   30   55 1    
    55   30   56 1    
    56   31   32 1    
    57   31   57 1    
    58   31   58 1    
    59   32   33 1    
    60   32   59 1    
    61   32   60 1    
    62   33   34 1    
    63   33   35 1    
    64   34   61 1    
    65   34   62 1    
    66   34   63 1    
    67   35   64 1    
    68   35   65 1    
    69   35   66 1    
    70   36   37 1    
    71   37   67 1    
    72   37   68 1    
    73   37   69 1    
@<TRIPOS>SUBSTRUCTURE
     1 OSI         1 GROUP             0       ****    0 ROOT    
@<TRIPOS>MOLECULE
~{N}-[2-[2-(dimethylamino)ethyl-methyl-amino]-4-methoxy-5-[[4-(1-methylindol-3-yl)pyrimidin-2-yl]amino]phenyl]prop-2-enamide
72   75    1
SMALL
USER_CHARGES


@<TRIPOS>ATOM
      1 C1        -11.2397    8.2942    3.0775 C.3       1 OSI         0.2082 
      2 N1        -10.3716    7.4871    3.9075 N.pl3     1 OSI        -0.4905 
      3 C2         -9.7322    6.3538    3.4818 C.ar      1 OSI         0.0617 
      4 C3         -9.0005    5.8589    4.5366 C.ar      1 OSI        -0.2375 
      5 C4         -9.2027    6.7245    5.6479 C.ar      1 OSI        -0.0629 
      6 C5         -8.7321    6.7433    6.9759 C.ar      1 OSI        -0.0875 
      7 C6         -9.1424    7.7725    7.8310 C.ar      1 OSI        -0.1522 
      8 C7        -10.0056    8.7705    7.3830 C.ar      1 OSI        -0.1170 
      9 C8        -10.4853    8.7726    6.0700 C.ar      1 OSI        -0.1386 
     10 C9        -10.0667    7.7375    5.2264 C.ar      1 OSI         0.0766 
     11 C10        -8.2053    4.6694    4.4284 C.ar      1 OSI         0.5705 
     12 N2         -8.0637    3.9524    5.5626 N.ar      1 OSI        -0.7523 
     13 C11        -7.3151    2.8396    5.4416 C.ar      1 OSI         0.8794 
     14 N3         -6.7109    2.3878    4.3261 N.ar      1 OSI        -0.7276 
     15 C12        -6.8941    3.1527    3.2299 C.ar      1 OSI         0.4615 
     16 C13        -7.6382    4.3147    3.2214 C.ar      1 OSI        -0.4065 
     17 N4         -7.1454    2.0639    6.6092 N.pl3     1 OSI        -0.7307 
     18 C14        -7.6128    2.2136    7.9282 C.ar      1 OSI         0.1854 
     19 C15        -6.8701    1.7262    9.0036 C.ar      1 OSI         0.0087 
     20 C16        -7.3450    1.8804   10.3061 C.ar      1 OSI        -0.1088 
     21 C17        -8.5626    2.5218   10.5331 C.ar      1 OSI         0.0455 
     22 C18        -9.3054    3.0091    9.4577 C.ar      1 OSI         0.1089 
     23 C19        -8.8304    2.8550    8.1552 C.ar      1 OSI        -0.1692 
     24 N5        -10.5273    3.6565    9.6615 N.2       1 OSI        -0.4594 
     25 C20       -11.3860    4.1981    8.6974 C.2       1 OSI         0.6607 
     26 O1        -11.2253    4.2064    7.4827 O.2       1 OSI        -0.5885 
     27 C21       -12.5967    4.8065    9.3216 C.2       1 OSI        -0.2404 
     28 C22       -13.5385    5.3771    8.5638 C.2       1 OSI        -0.1318 
     29 N6         -9.0240    2.6667   11.8606 N.4       1 OSI        -0.7102 
     30 C23        -9.8566    1.6454   12.4612 C.3       1 OSI         0.2005 
     31 C24        -8.6577    3.8316   12.6392 C.3       1 OSI         0.2105 
     32 C25        -7.3730    3.6110   13.4127 C.3       1 OSI         0.1398 
     33 N7         -7.0029    4.7637   14.1884 N.4       1 OSI        -0.7456 
     34 C26        -6.3474    5.7829   13.3541 C.3       1 OSI         0.1612 
     35 C27        -6.1152    4.3969   15.3029 C.3       1 OSI         0.1612 
     36 O2         -5.6781    1.0964    8.8026 O.3       1 OSI        -0.3487 
     37 C28        -4.5083    1.9117    8.7953 C.3       1 OSI         0.1129 
     38 H1        -11.2978    7.8541    2.0711 H         1 OSI         0.0514 
     39 H2        -10.8358    9.3150    3.0085 H         1 OSI         0.0514 
     40 H3        -12.2454    8.3270    3.5220 H         1 OSI         0.0514 
     41 H4         -9.8536    5.9989    2.4662 H         1 OSI         0.1770 
     42 H5         -8.0590    5.9728    7.3411 H         1 OSI         0.1380 
     43 H6         -8.7828    7.7922    8.8564 H         1 OSI         0.1297 
     44 H7        -10.3114    9.5603    8.0644 H         1 OSI         0.1297 
     45 H8        -11.1571    9.5522    5.7266 H         1 OSI         0.1315 
     46 H9         -6.4097    2.7934    2.3281 H         1 OSI         0.0298 
     47 H10        -7.7593    4.8995    2.3179 H         1 OSI         0.1589 
     48 H11        -6.5444    1.1432    6.5753 H         1 OSI         0.4660 
     49 H12        -6.7620    1.4983   11.1409 H         1 OSI         0.1439 
     50 H13        -9.4089    3.2354    7.3157 H         1 OSI         0.1989 
     51 H15       -12.7106    4.7827   10.4154 H         1 OSI         0.1312 
     52 H16       -14.4274    5.8229    9.0340 H         1 OSI         0.1300 
     53 H17       -13.4246    5.4009    7.4700 H         1 OSI         0.1300 
     54 H18       -10.1108    1.9382   13.4906 H         1 OSI         0.0302 
     55 H19        -9.3118    0.6899   12.4757 H         1 OSI         0.0302 
     56 H20       -10.7796    1.5324   11.8735 H         1 OSI         0.0302 
     57 H21        -8.5131    4.6908   11.9677 H         1 OSI         0.0544 
     58 H22        -9.4587    4.0589   13.3581 H         1 OSI         0.0544 
     59 H23        -7.5004    2.7621   14.1006 H         1 OSI         0.0349 
     60 H24        -6.5547    3.3941   12.7103 H         1 OSI         0.0349 
     61 H25        -6.0781    6.6487   13.9769 H         1 OSI         0.0304 
     62 H26        -7.0359    6.1035   12.5583 H         1 OSI         0.0304 
     63 H27        -5.4382    5.3584   12.9033 H         1 OSI         0.0304 
     64 H28        -5.8520    5.2993   15.8742 H         1 OSI         0.0304 
     65 H29        -5.1997    3.9345   14.9055 H         1 OSI         0.0304 
     66 H30        -6.6303    3.6827   15.9622 H         1 OSI         0.0304 
     67 H31        -3.6231    1.2814    8.6245 H         1 OSI         0.0398 
     68 H32        -4.4123    2.4239    9.7640 H         1 OSI         0.0398 
     69 H33        -4.5871    2.6588    7.9917 H         1 OSI         0.0398 
     70 H70        -7.9460    5.1659   14.5868 H         1 OSI         0.0000 
     71 H71       -11.9817    4.6680    6.8310 H         1 OSI         0.0000 
     72 H72        -9.9228    3.1826   11.4919 H         1 OSI         0.0000 
@<TRIPOS>BOND
     1    1    2 1    
     2    1   38 1    
     3    1   39 1    
     4    1   40 1    
     5    2   10 ar   
     6    2    3 ar   
     7    3    4 ar   
     8    3   41 1    
     9    4    5 ar   
    10    4   11 1    
    11    5   10 ar   
    12    5    6 ar   
    13    6    7 ar   
    14    6   42 1    
    15    7    8 ar   
    16    7   43 1    
    17    8    9 ar   
    18    8   44 1    
    19    9   10 ar   
    20    9   45 1    
    21   11   16 ar   
    22   11   12 ar   
    23   12   13 ar   
    24   13   14 ar   
    25   13   17 1    
    26   14   15 ar   
    27   15   16 ar   
    28   15   46 1    
    29   16   47 1    
    30   17   18 1    
    31   17   48 1    
    32   18   23 ar   
    33   18   19 ar   
    34   19   20 ar   
    35   19   36 1    
    36   20   21 ar   
    37   20   49 1    
    38   21   22 ar   
    39   21   29 1    
    40   22   23 ar   
    41   22   24 1    
    42   23   50 1    
    43   24   25 1    
    44   25   26 2    
    45   25   27 1    
    46   26   71 1    
    47   27   28 2    
    48   27   51 1    
    49   28   52 1    
    50   28   53 1    
    51   29   30 1    
    52   29   31 1    
    53   29   72 1    
    54   30   54 1    
    55   30   55 1    
    56   30   56 1    
    57   31   32 1    
    58   31   57 1    
    59   31   58 1    
    60   32   33 1    
    61   32   59 1    
    62   32   60 1    
    63   33   34 1    
    64   33   35 1    
    65   33   70 1    
    66   34   61 1    
    67   34   62 1    
    68   34   63 1    
    69   35   64 1    
    70   35   65 1    
    71   35   66 1    
    72   36   37 1    
    73   37   67 1    
    74   37   68 1    
    75   37   69 1    
@<TRIPOS>SUBSTRUCTURE
     1 OSI         1 GROUP             0       ****    0 ROOT    
@<TRIPOS>MOLECULE
~{N}-[2-[2-(dimethylamino)ethyl-methyl-amino]-4-methoxy-5-[[4-(1-methylindol-3-yl)pyrimidin-2-yl]amino]phenyl]prop-2-enamide
72   75    1
SMALL
USER_CHARGES


@<TRIPOS>ATOM
      1 C1        -11.2485    8.2871    3.0758 C.3       1 OSI         0.2082 
      2 N1        -10.3788    7.4818    3.9058 N.pl3     1 OSI        -0.4905 
      3 C2         -9.7382    6.3490    3.4806 C.ar      1 OSI         0.0617 
      4 C3         -9.0051    5.8559    4.5353 C.ar      1 OSI        -0.2375 
      5 C4         -9.2076    6.7222    5.6460 C.ar      1 OSI        -0.0629 
      6 C5         -8.7361    6.7427    6.9737 C.ar      1 OSI        -0.0875 
      7 C6         -9.1471    7.7721    7.8282 C.ar      1 OSI        -0.1522 
      8 C7        -10.0119    8.7686    7.3800 C.ar      1 OSI        -0.1170 
      9 C8        -10.4926    8.7690    6.0673 C.ar      1 OSI        -0.1386 
     10 C9        -10.0732    7.7337    5.2243 C.ar      1 OSI         0.0766 
     11 C10        -8.2084    4.6674    4.4275 C.ar      1 OSI         0.5705 
     12 N2         -8.0653    3.9514    5.5622 N.ar      1 OSI        -0.7523 
     13 C11        -7.3151    2.8396    5.4416 C.ar      1 OSI         0.8794 
     14 N3         -6.7095    2.3887    4.3265 N.ar      1 OSI        -0.7276 
     15 C12        -6.8928    3.1535    3.2303 C.ar      1 OSI         0.4615 
     16 C13        -7.6410    4.3129    3.2206 C.ar      1 OSI        -0.4065 
     17 N4         -7.1454    2.0639    6.6092 N.pl3     1 OSI        -0.7307 
     18 C14        -7.6128    2.2136    7.9282 C.ar      1 OSI         0.1854 
     19 C15        -6.8701    1.7262    9.0036 C.ar      1 OSI         0.0087 
     20 C16        -7.3450    1.8804   10.3061 C.ar      1 OSI        -0.1088 
     21 C17        -8.5626    2.5218   10.5331 C.ar      1 OSI         0.0455 
     22 C18        -9.3054    3.0091    9.4577 C.ar      1 OSI         0.1089 
     23 C19        -8.8304    2.8550    8.1552 C.ar      1 OSI        -0.1692 
     24 N5        -10.5273    3.6565    9.6615 N.2       1 OSI        -0.4594 
     25 C20       -11.3860    4.1981    8.6974 C.2       1 OSI         0.6607 
     26 O1        -11.2253    4.2064    7.4827 O.3       1 OSI        -0.5885 
     27 C21       -12.5967    4.8065    9.3216 C.2       1 OSI        -0.2404 
     28 C22       -13.5385    5.3771    8.5638 C.2       1 OSI        -0.1318 
     29 N6         -9.0240    2.6667   11.8606 N.pl3     1 OSI        -0.7102 
     30 C23        -9.8566    1.6454   12.4612 C.3       1 OSI         0.2005 
     31 C24        -8.6577    3.8316   12.6392 C.3       1 OSI         0.2105 
     32 C25        -7.3730    3.6110   13.4127 C.3       1 OSI         0.1398 
     33 N7         -7.0029    4.7637   14.1884 N.4       1 OSI        -0.7456 
     34 C26        -6.3474    5.7829   13.3541 C.3       1 OSI         0.1612 
     35 C27        -6.1152    4.3969   15.3029 C.3       1 OSI         0.1612 
     36 O2         -5.6781    1.0964    8.8026 O.3       1 OSI        -0.3487 
     37 C28        -4.5083    1.9117    8.7953 C.3       1 OSI         0.1129 
     38 H1        -11.3068    7.8461    2.0698 H         1 OSI         0.0514 
     39 H2        -10.8460    9.3084    3.0057 H         1 OSI         0.0514 
     40 H3        -12.2539    8.3190    3.5210 H         1 OSI         0.0514 
     41 H4         -9.7279    5.8755    2.5999 H         1 OSI         0.1770 
     42 H5         -8.1153    6.0334    7.3077 H         1 OSI         0.1380 
     43 H6         -8.8199    7.7984    8.7728 H         1 OSI         0.1297 
     44 H7        -10.2881    9.4911    8.0138 H         1 OSI         0.1297 
     45 H8        -11.1125    9.4918    5.7621 H         1 OSI         0.1315 
     46 H9         -6.4493    2.8377    2.3915 H         1 OSI         0.0298 
     47 H10        -7.7425    4.8355    2.3741 H         1 OSI         0.1589 
     48 H12        -6.7620    1.4983   11.1409 H         1 OSI         0.1439 
     49 H13        -9.4089    3.2354    7.3157 H         1 OSI         0.1989 
     50 H15       -12.7106    4.7827   10.4154 H         1 OSI         0.1312 
     51 H16       -14.4274    5.8229    9.0340 H         1 OSI         0.1300 
     52 H17       -13.4246    5.4009    7.4700 H         1 OSI         0.1300 
     53 H18       -10.1108    1.9382   13.4906 H         1 OSI         0.0302 
     54 H19        -9.3118    0.6899   12.4757 H         1 OSI         0.0302 
     55 H20       -10.7796    1.5324   11.8735 H         1 OSI         0.0302 
     56 H21        -8.5131    4.6908   11.9677 H         1 OSI         0.0544 
     57 H22        -9.4587    4.0589   13.3581 H         1 OSI         0.0544 
     58 H23        -7.5004    2.7621   14.1006 H         1 OSI         0.0349 
     59 H24        -6.5547    3.3941   12.7103 H         1 OSI         0.0349 
     60 H25        -6.0781    6.6487   13.9769 H         1 OSI         0.0304 
     61 H26        -7.0359    6.1035   12.5583 H         1 OSI         0.0304 
     62 H27        -5.4382    5.3584   12.9033 H         1 OSI         0.0304 
     63 H28        -5.8520    5.2993   15.8742 H         1 OSI         0.0304 
     64 H29        -5.1997    3.9345   14.9055 H         1 OSI         0.0304 
     65 H30        -6.6303    3.6827   15.9622 H         1 OSI         0.0304 
     66 H31        -3.6231    1.2814    8.6245 H         1 OSI         0.0398 
     67 H32        -4.4123    2.4239    9.7640 H         1 OSI         0.0398 
     68 H33        -4.5871    2.6588    7.9917 H         1 OSI         0.0398 
     69 H69        -7.9460    5.1659   14.5868 H         1 OSI         0.0000 
     70 H70       -11.9817    4.6680    6.8310 H         1 OSI         0.0000 
     71 H71        -6.5444    1.1432    6.5753 H         1 OSI         0.0000 
     72 H72        -9.9228    3.1826   11.4919 H         1 OSI         0.0000 
@<TRIPOS>BOND
     1    1    2 1    
     2    1   38 1    
     3    1   39 1    
     4    1   40 1    
     5    2   10 ar   
     6    2    3 ar   
     7    3    4 ar   
     8    3   41 1    
     9    4    5 ar   
    10    4   11 1    
    11    5   10 ar   
    12    5    6 ar   
    13    6    7 ar   
    14    6   42 1    
    15    7    8 ar   
    16    7   43 1    
    17    8    9 ar   
    18    8   44 1    
    19    9   10 ar   
    20    9   45 1    
    21   11   16 ar   
    22   11   12 ar   
    23   12   13 ar   
    24   13   17 1    
    25   13   14 ar   
    26   14   15 ar   
    27   15   46 1    
    28   15   16 ar   
    29   16   47 1    
    30   17   18 1    
    31   17   71 1    
    32   18   23 ar   
    33   18   19 ar   
    34   19   20 ar   
    35   19   36 1    
    36   20   21 ar   
    37   20   48 1    
    38   21   22 ar   
    39   21   29 1    
    40   22   23 ar   
    41   22   24 1    
    42   23   49 1    
    43   24   25 2    
    44   25   26 1    
    45   25   27 1    
    46   26   70 1    
    47   27   28 2    
    48   27   50 1    
    49   28   51 1    
    50   28   52 1    
    51   29   30 1    
    52   29   31 1    
    53   29   72 1    
    54   30   53 1    
    55   30   54 1    
    56   30   55 1    
    57   31   32 1    
    58   31   56 1    
    59   31   57 1    
    60   32   33 1    
    61   32   58 1    
    62   32   59 1    
    63   33   34 1    
    64   33   35 1    
    65   33   69 1    
    66   34   60 1    
    67   34   61 1    
    68   34   62 1    
    69   35   63 1    
    70   35   64 1    
    71   35   65 1    
    72   36   37 1    
    73   37   66 1    
    74   37   67 1    
    75   37   68 1    
@<TRIPOS>SUBSTRUCTURE
     1 OSI         1 GROUP             0       ****    0 ROOT    
@<TRIPOS>MOLECULE
~{N}-[2-[2-(dimethylamino)ethyl-methyl-amino]-4-methoxy-5-[[4-(1-methylindol-3-yl)pyrimidin-2-yl]amino]phenyl]prop-2-enamide
72   75    1
SMALL
USER_CHARGES


@<TRIPOS>ATOM
      1 C1        -11.2397    8.2942    3.0775 C.3       1 OSI         0.2082 
      2 N1        -10.3716    7.4871    3.9075 N.pl3     1 OSI        -0.4905 
      3 C2         -9.7322    6.3538    3.4818 C.ar      1 OSI         0.0617 
      4 C3         -9.0005    5.8589    4.5366 C.ar      1 OSI        -0.2375 
      5 C4         -9.2027    6.7245    5.6479 C.ar      1 OSI        -0.0629 
      6 C5         -8.7321    6.7433    6.9759 C.ar      1 OSI        -0.0875 
      7 C6         -9.1424    7.7725    7.8310 C.ar      1 OSI        -0.1522 
      8 C7        -10.0056    8.7705    7.3830 C.ar      1 OSI        -0.1170 
      9 C8        -10.4853    8.7726    6.0700 C.ar      1 OSI        -0.1386 
     10 C9        -10.0667    7.7375    5.2264 C.ar      1 OSI         0.0766 
     11 C10        -8.2053    4.6694    4.4284 C.ar      1 OSI         0.5705 
     12 N2         -8.0637    3.9524    5.5626 N.ar      1 OSI        -0.7523 
     13 C11        -7.3151    2.8396    5.4416 C.ar      1 OSI         0.8794 
     14 N3         -6.7109    2.3878    4.3261 N.ar      1 OSI        -0.7276 
     15 C12        -6.8941    3.1527    3.2299 C.ar      1 OSI         0.4615 
     16 C13        -7.6382    4.3147    3.2214 C.ar      1 OSI        -0.4065 
     17 N4         -7.1454    2.0639    6.6092 N.pl3     1 OSI        -0.7307 
     18 C14        -7.6128    2.2136    7.9282 C.ar      1 OSI         0.1854 
     19 C15        -6.8701    1.7262    9.0036 C.ar      1 OSI         0.0087 
     20 C16        -7.3450    1.8804   10.3061 C.ar      1 OSI        -0.1088 
     21 C17        -8.5626    2.5218   10.5331 C.ar      1 OSI         0.0455 
     22 C18        -9.3054    3.0091    9.4577 C.ar      1 OSI         0.1089 
     23 C19        -8.8304    2.8550    8.1552 C.ar      1 OSI        -0.1692 
     24 N5        -10.5273    3.6565    9.6615 N.am      1 OSI        -0.4594 
     25 C20       -11.3860    4.1981    8.6974 C.2       1 OSI         0.6607 
     26 O1        -11.2253    4.2064    7.4827 O.2       1 OSI        -0.5885 
     27 C21       -12.5967    4.8065    9.3216 C.2       1 OSI        -0.2404 
     28 C22       -13.5385    5.3771    8.5638 C.2       1 OSI        -0.1318 
     29 N6         -9.0240    2.6667   11.8606 N.4       1 OSI        -0.7102 
     30 C23        -9.8566    1.6454   12.4612 C.3       1 OSI         0.2005 
     31 C24        -8.6577    3.8316   12.6392 C.3       1 OSI         0.2105 
     32 C25        -7.3730    3.6110   13.4127 C.3       1 OSI         0.1398 
     33 N7         -7.0029    4.7637   14.1884 N.3       1 OSI        -0.7456 
     34 C26        -6.3474    5.7829   13.3541 C.3       1 OSI         0.1612 
     35 C27        -6.1152    4.3969   15.3029 C.3       1 OSI         0.1612 
     36 O2         -5.6781    1.0964    8.8026 O.3       1 OSI        -0.3487 
     37 C28        -4.5083    1.9117    8.7953 C.3       1 OSI         0.1129 
     38 H1        -11.2978    7.8541    2.0711 H         1 OSI         0.0514 
     39 H2        -10.8358    9.3150    3.0085 H         1 OSI         0.0514 
     40 H3        -12.2454    8.3270    3.5220 H         1 OSI         0.0514 
     41 H4         -9.8536    5.9989    2.4662 H         1 OSI         0.1770 
     42 H5         -8.0590    5.9728    7.3411 H         1 OSI         0.1380 
     43 H6         -8.7828    7.7922    8.8564 H         1 OSI         0.1297 
     44 H7        -10.3114    9.5603    8.0644 H         1 OSI         0.1297 
     45 H8        -11.1571    9.5522    5.7266 H         1 OSI         0.1315 
     46 H9         -6.4097    2.7934    2.3281 H         1 OSI         0.0298 
     47 H10        -7.7593    4.8995    2.3179 H         1 OSI         0.1589 
     48 H11        -6.5444    1.1432    6.5753 H         1 OSI         0.4660 
     49 H12        -6.7620    1.4983   11.1409 H         1 OSI         0.1439 
     50 H13        -9.4089    3.2354    7.3157 H         1 OSI         0.1989 
     51 H15       -12.7106    4.7827   10.4154 H         1 OSI         0.1312 
     52 H16       -14.4274    5.8229    9.0340 H         1 OSI         0.1300 
     53 H17       -13.4246    5.4009    7.4700 H         1 OSI         0.1300 
     54 H18       -10.1108    1.9382   13.4906 H         1 OSI         0.0302 
     55 H19        -9.3118    0.6899   12.4757 H         1 OSI         0.0302 
     56 H20       -10.7796    1.5324   11.8735 H         1 OSI         0.0302 
     57 H21        -8.5131    4.6908   11.9677 H         1 OSI         0.0544 
     58 H22        -9.4587    4.0589   13.3581 H         1 OSI         0.0544 
     59 H23        -7.5004    2.7621   14.1006 H         1 OSI         0.0349 
     60 H24        -6.5547    3.3941   12.7103 H         1 OSI         0.0349 
     61 H25        -6.0781    6.6487   13.9769 H         1 OSI         0.0304 
     62 H26        -7.0359    6.1035   12.5583 H         1 OSI         0.0304 
     63 H27        -5.4382    5.3584   12.9033 H         1 OSI         0.0304 
     64 H28        -5.8520    5.2993   15.8742 H         1 OSI         0.0304 
     65 H29        -5.1997    3.9345   14.9055 H         1 OSI         0.0304 
     66 H30        -6.6303    3.6827   15.9622 H         1 OSI         0.0304 
     67 H31        -3.6231    1.2814    8.6245 H         1 OSI         0.0398 
     68 H32        -4.4123    2.4239    9.7640 H         1 OSI         0.0398 
     69 H33        -4.5871    2.6588    7.9917 H         1 OSI         0.0398 
     70 H70       -11.9817    4.6680    6.8310 H         1 OSI         0.0000 
     71 H71        -9.9228    3.1826   11.4919 H         1 OSI         0.0000 
     72 H72       -10.9166    3.7880   10.6819 H         1 OSI         0.0000 
@<TRIPOS>BOND
     1    1    2 1    
     2    1   38 1    
     3    1   39 1    
     4    1   40 1    
     5    2   10 ar   
     6    2    3 ar   
     7    3    4 ar   
     8    3   41 1    
     9    4    5 ar   
    10    4   11 1    
    11    5   10 ar   
    12    5    6 ar   
    13    6    7 ar   
    14    6   42 1    
    15    7    8 ar   
    16    7   43 1    
    17    8    9 ar   
    18    8   44 1    
    19    9   10 ar   
    20    9   45 1    
    21   11   16 ar   
    22   11   12 ar   
    23   12   13 ar   
    24   13   14 ar   
    25   13   17 1    
    26   14   15 ar   
    27   15   16 ar   
    28   15   46 1    
    29   16   47 1    
    30   17   18 1    
    31   17   48 1    
    32   18   23 ar   
    33   18   19 ar   
    34   19   20 ar   
    35   19   36 1    
    36   20   21 ar   
    37   20   49 1    
    38   21   22 ar   
    39   21   29 1    
    40   22   23 ar   
    41   22   24 1    
    42   23   50 1    
    43   24   25 am   BACKBONE|DICT|INTERRES
    44   24   72 1    
    45   25   26 2    
    46   25   27 1    
    47   26   70 1    
    48   27   28 2    
    49   27   51 1    
    50   28   52 1    
    51   28   53 1    
    52   29   30 1    
    53   29   31 1    
    54   29   71 1    
    55   30   54 1    
    56   30   55 1    
    57   30   56 1    
    58   31   32 1    
    59   31   57 1    
    60   31   58 1    
    61   32   33 1    
    62   32   59 1    
    63   32   60 1    
    64   33   34 1    
    65   33   35 1    
    66   34   61 1    
    67   34   62 1    
    68   34   63 1    
    69   35   64 1    
    70   35   65 1    
    71   35   66 1    
    72   36   37 1    
    73   37   67 1    
    74   37   68 1    
    75   37   69 1    
@<TRIPOS>SUBSTRUCTURE
     1 OSI         1 GROUP             0       ****    0 ROOT    
@<TRIPOS>MOLECULE
~{N}-[2-[2-(dimethylamino)ethyl-methyl-amino]-4-methoxy-5-[[4-(1-methylindol-3-yl)pyrimidin-2-yl]amino]phenyl]prop-2-enamide
71   74    1
SMALL
USER_CHARGES


@<TRIPOS>ATOM
      1 C1        -11.2390    8.2949    3.0778 C.3       1 OSI         0.2082 
      2 N1        -10.3709    7.4876    3.9078 N.pl3     1 OSI        -0.4905 
      3 C2         -9.7318    6.3542    3.4820 C.ar      1 OSI         0.0617 
      4 C3         -9.0000    5.8592    4.5367 C.ar      1 OSI        -0.2375 
      5 C4         -9.2019    6.7249    5.6480 C.ar      1 OSI        -0.0629 
      6 C5         -8.7312    6.7436    6.9760 C.ar      1 OSI        -0.0875 
      7 C6         -9.1412    7.7729    7.8311 C.ar      1 OSI        -0.1522 
      8 C7        -10.0042    8.7711    7.3832 C.ar      1 OSI        -0.1170 
      9 C8        -10.4841    8.7732    6.0702 C.ar      1 OSI        -0.1386 
     10 C9        -10.0658    7.7380    5.2266 C.ar      1 OSI         0.0766 
     11 C10        -8.2051    4.6695    4.4285 C.ar      1 OSI         0.5705 
     12 N2         -8.0637    3.9524    5.5626 N.pl3     1 OSI        -0.7523 
     13 C11        -7.3151    2.8396    5.4416 C.ar      1 OSI         0.8794 
     14 N3         -6.7095    2.3887    4.3265 N.2       1 OSI        -0.7276 
     15 C12        -6.8928    3.1535    3.2303 C.ar      1 OSI         0.4615 
     16 C13        -7.6374    4.3152    3.2216 C.ar      1 OSI        -0.4065 
     17 N4         -7.1454    2.0639    6.6092 N.2       1 OSI        -0.7307 
     18 C14        -7.6128    2.2136    7.9282 C.ar      1 OSI         0.1854 
     19 C15        -6.8701    1.7262    9.0036 C.ar      1 OSI         0.0087 
     20 C16        -7.3450    1.8804   10.3061 C.ar      1 OSI        -0.1088 
     21 C17        -8.5626    2.5218   10.5331 C.ar      1 OSI         0.0455 
     22 C18        -9.3054    3.0091    9.4577 C.ar      1 OSI         0.1089 
     23 C19        -8.8304    2.8550    8.1552 C.ar      1 OSI        -0.1692 
     24 N5        -10.5273    3.6565    9.6615 N.am      1 OSI        -0.4594 
     25 C20       -11.3860    4.1981    8.6974 C.2       1 OSI         0.6607 
     26 O1        -11.2253    4.2064    7.4827 O.2       1 OSI        -0.5885 
     27 C21       -12.5967    4.8065    9.3216 C.2       1 OSI        -0.2404 
     28 C22       -13.5385    5.3771    8.5638 C.2       1 OSI        -0.1318 
     29 N6         -9.0240    2.6667   11.8606 N.pl3     1 OSI        -0.7102 
     30 C23        -9.8566    1.6454   12.4612 C.3       1 OSI         0.2005 
     31 C24        -8.6577    3.8316   12.6392 C.3       1 OSI         0.2105 
     32 C25        -7.3730    3.6110   13.4127 C.3       1 OSI         0.1398 
     33 N7         -7.0029    4.7637   14.1884 N.4       1 OSI        -0.7456 
     34 C26        -6.3474    5.7829   13.3541 C.3       1 OSI         0.1612 
     35 C27        -6.1152    4.3969   15.3029 C.3       1 OSI         0.1612 
     36 O2         -5.6781    1.0964    8.8026 O.3       1 OSI        -0.3487 
     37 C28        -4.5083    1.9117    8.7953 C.3       1 OSI         0.1129 
     38 H1        -11.2973    7.8547    2.0714 H         1 OSI         0.0514 
     39 H2        -10.8349    9.3156    3.0088 H         1 OSI         0.0514 
     40 H3        -12.2446    8.3279    3.5225 H         1 OSI         0.0514 
     41 H4         -9.7217    5.8814    2.6009 H         1 OSI         0.1770 
     42 H5         -8.1117    6.0331    7.3098 H         1 OSI         0.1380 
     43 H6         -8.8145    7.7979    8.7759 H         1 OSI         0.1297 
     44 H7        -10.2797    9.4935    8.0174 H         1 OSI         0.1297 
     45 H8        -11.1028    9.4972    5.7652 H         1 OSI         0.1315 
     46 H9         -6.4521    2.8359    2.3907 H         1 OSI         0.0298 
     47 H10        -7.7364    4.8393    2.3758 H         1 OSI         0.1589 
     48 H12        -6.7620    1.4983   11.1409 H         1 OSI         0.1439 
     49 H13        -9.4089    3.2354    7.3157 H         1 OSI         0.1989 
     50 H14       -10.9166    3.7880   10.6819 H         1 OSI         0.3330 
     51 H15       -12.7106    4.7827   10.4154 H         1 OSI         0.1312 
     52 H16       -14.4274    5.8229    9.0340 H         1 OSI         0.1300 
     53 H17       -13.4246    5.4009    7.4700 H         1 OSI         0.1300 
     54 H18       -10.1108    1.9382   13.4906 H         1 OSI         0.0302 
     55 H19        -9.3118    0.6899   12.4757 H         1 OSI         0.0302 
     56 H20       -10.7796    1.5324   11.8735 H         1 OSI         0.0302 
     57 H21        -8.5131    4.6908   11.9677 H         1 OSI         0.0544 
     58 H22        -9.4587    4.0589   13.3581 H         1 OSI         0.0544 
     59 H23        -7.5004    2.7621   14.1006 H         1 OSI         0.0349 
     60 H24        -6.5547    3.3941   12.7103 H         1 OSI         0.0349 
     61 H25        -6.0781    6.6487   13.9769 H         1 OSI         0.0304 
     62 H26        -7.0359    6.1035   12.5583 H         1 OSI         0.0304 
     63 H27        -5.4382    5.3584   12.9033 H         1 OSI         0.0304 
     64 H28        -5.8520    5.2993   15.8742 H         1 OSI         0.0304 
     65 H29        -5.1997    3.9345   14.9055 H         1 OSI         0.0304 
     66 H30        -6.6303    3.6827   15.9622 H         1 OSI         0.0304 
     67 H31        -3.6231    1.2814    8.6245 H         1 OSI         0.0398 
     68 H32        -4.4123    2.4239    9.7640 H         1 OSI         0.0398 
     69 H33        -4.5871    2.6588    7.9917 H         1 OSI         0.0398 
     70 H70        -7.9460    5.1659   14.5868 H         1 OSI         0.0000 
     71 H71        -8.5058    4.2148    6.5351 H         1 OSI         0.0000 
@<TRIPOS>BOND
     1    1    2 1    
     2    1   38 1    
     3    1   39 1    
     4    1   40 1    
     5    2   10 ar   
     6    2    3 ar   
     7    3    4 ar   
     8    3   41 1    
     9    4    5 ar   
    10    4   11 1    
    11    5   10 ar   
    12    5    6 ar   
    13    6    7 ar   
    14    6   42 1    
    15    7    8 ar   
    16    7   43 1    
    17    8    9 ar   
    18    8   44 1    
    19    9   10 ar   
    20    9   45 1    
    21   11   12 ar   
    22   11   16 ar   
    23   12   13 ar   
    24   12   71 1    
    25   13   17 2    
    26   13   14 ar   
    27   14   15 ar   
    28   15   16 ar   
    29   15   46 1    
    30   16   47 1    
    31   17   18 1    
    32   18   23 ar   
    33   18   19 ar   
    34   19   20 ar   
    35   19   36 1    
    36   20   21 ar   
    37   20   48 1    
    38   21   22 ar   
    39   21   29 1    
    40   22   23 ar   
    41   22   24 1    
    42   23   49 1    
    43   24   25 am   BACKBONE|DICT|INTERRES
    44   24   50 1    
    45   25   26 2    
    46   25   27 1    
    47   27   28 2    
    48   27   51 1    
    49   28   52 1    
    50   28   53 1    
    51   29   30 1    
    52   29   31 1    
    53   30   54 1    
    54   30   55 1    
    55   30   56 1    
    56   31   32 1    
    57   31   57 1    
    58   31   58 1    
    59   32   33 1    
    60   32   59 1    
    61   32   60 1    
    62   33   34 1    
    63   33   35 1    
    64   33   70 1    
    65   34   61 1    
    66   34   62 1    
    67   34   63 1    
    68   35   64 1    
    69   35   65 1    
    70   35   66 1    
    71   36   37 1    
    72   37   67 1    
    73   37   68 1    
    74   37   69 1    
@<TRIPOS>SUBSTRUCTURE
     1 OSI         1 GROUP             0       ****    0 ROOT    
@<TRIPOS>MOLECULE
~{N}-[2-[2-(dimethylamino)ethyl-methyl-amino]-4-methoxy-5-[[4-(1-methylindol-3-yl)pyrimidin-2-yl]amino]phenyl]prop-2-enamide
71   74    1
SMALL
USER_CHARGES


@<TRIPOS>ATOM
      1 C1        -11.2390    8.2949    3.0778 C.3       1 OSI         0.2082 
      2 N1        -10.3709    7.4876    3.9078 N.pl3     1 OSI        -0.4905 
      3 C2         -9.7318    6.3542    3.4820 C.ar      1 OSI         0.0617 
      4 C3         -9.0000    5.8592    4.5367 C.ar      1 OSI        -0.2375 
      5 C4         -9.2019    6.7249    5.6480 C.ar      1 OSI        -0.0629 
      6 C5         -8.7312    6.7436    6.9760 C.ar      1 OSI        -0.0875 
      7 C6         -9.1412    7.7729    7.8311 C.ar      1 OSI        -0.1522 
      8 C7        -10.0042    8.7711    7.3832 C.ar      1 OSI        -0.1170 
      9 C8        -10.4841    8.7732    6.0702 C.ar      1 OSI        -0.1386 
     10 C9        -10.0658    7.7380    5.2266 C.ar      1 OSI         0.0766 
     11 C10        -8.2051    4.6695    4.4285 C.ar      1 OSI         0.5705 
     12 N2         -8.0637    3.9524    5.5626 N.pl3     1 OSI        -0.7523 
     13 C11        -7.3151    2.8396    5.4416 C.ar      1 OSI         0.8794 
     14 N3         -6.7095    2.3887    4.3265 N.2       1 OSI        -0.7276 
     15 C12        -6.8928    3.1535    3.2303 C.ar      1 OSI         0.4615 
     16 C13        -7.6374    4.3152    3.2216 C.ar      1 OSI        -0.4065 
     17 N4         -7.1454    2.0639    6.6092 N.2       1 OSI        -0.7307 
     18 C14        -6.4491    0.8679    6.8651 C.ar      1 OSI         0.1854 
     19 C15        -6.8922   -0.0140    7.8507 C.ar      1 OSI         0.0087 
     20 C16        -6.1925   -1.1957    8.0950 C.ar      1 OSI        -0.1088 
     21 C17        -5.0497   -1.4954    7.3537 C.ar      1 OSI         0.0455 
     22 C18        -4.6064   -0.6135    6.3681 C.ar      1 OSI         0.1089 
     23 C19        -5.3063    0.5682    6.1238 C.ar      1 OSI        -0.1692 
     24 N5         -3.4648   -0.8940    5.6119 N.am      1 OSI        -0.4594 
     25 C20        -2.8941   -0.1194    4.5949 C.2       1 OSI         0.6607 
     26 O1         -3.2927    0.9597    4.1728 O.2       1 OSI        -0.5885 
     27 C21        -1.6746   -0.7678    4.0309 C.2       1 OSI        -0.2404 
     28 C22        -0.9860   -0.1811    3.0468 C.2       1 OSI        -0.1318 
     29 N6         -4.3569   -2.6980    7.6182 N.pl3     1 OSI        -0.7102 
     30 C23        -3.2941   -2.7289    8.6013 C.3       1 OSI         0.2005 
     31 C24        -4.7117   -3.9156    6.9188 C.3       1 OSI         0.2105 
     32 C25        -5.7764   -4.7005    7.6589 C.3       1 OSI         0.1398 
     33 N7         -6.1339   -5.9111    6.9703 N.4       1 OSI        -0.7456 
     34 C26        -7.0708   -5.6437    5.8680 C.3       1 OSI         0.1612 
     35 C27        -6.7260   -6.8954    7.8896 C.3       1 OSI         0.1612 
     36 O2         -8.0066    0.2609    8.5860 O.3       1 OSI        -0.3487 
     37 C28        -9.2517   -0.2101    8.0751 C.3       1 OSI         0.1129 
     38 H1        -11.2973    7.8547    2.0714 H         1 OSI         0.0514 
     39 H2        -10.8349    9.3156    3.0088 H         1 OSI         0.0514 
     40 H3        -12.2446    8.3279    3.5225 H         1 OSI         0.0514 
     41 H4         -9.7217    5.8814    2.6009 H         1 OSI         0.1770 
     42 H5         -8.1117    6.0331    7.3098 H         1 OSI         0.1380 
     43 H6         -8.8145    7.7979    8.7759 H         1 OSI         0.1297 
     44 H7        -10.2797    9.4935    8.0174 H         1 OSI         0.1297 
     45 H8        -11.1028    9.4972    5.7652 H         1 OSI         0.1315 
     46 H9         -6.4521    2.8359    2.3907 H         1 OSI         0.0298 
     47 H10        -7.7364    4.8393    2.3758 H         1 OSI         0.1589 
     48 H12        -6.5423   -1.8797    8.8648 H         1 OSI         0.1439 
     49 H13        -4.9616    1.2565    5.3546 H         1 OSI         0.1989 
     50 H14        -2.9013   -1.8217    5.7901 H         1 OSI         0.3330 
     51 H15        -1.3435   -1.7371    4.4319 H         1 OSI         0.1312 
     52 H16        -0.0881   -0.6677    2.6379 H         1 OSI         0.1300 
     53 H17        -1.3171    0.7882    2.6458 H         1 OSI         0.1300 
     54 H18        -2.8813   -3.7466    8.6632 H         1 OSI         0.0302 
     55 H19        -3.6941   -2.4352    9.5830 H         1 OSI         0.0302 
     56 H20        -2.4997   -2.0283    8.3046 H         1 OSI         0.0302 
     57 H21        -5.0991   -3.6652    5.9202 H         1 OSI         0.0544 
     58 H22        -3.8210   -4.5530    6.8173 H         1 OSI         0.0544 
     59 H23        -5.4039   -4.9722    8.6576 H         1 OSI         0.0349 
     60 H24        -6.6820   -4.0844    7.7604 H         1 OSI         0.0349 
     61 H25        -7.3229   -6.5882    5.3638 H         1 OSI         0.0304 
     62 H26        -6.6028   -4.9569    5.1473 H         1 OSI         0.0304 
     63 H27        -7.9873   -5.1859    6.2687 H         1 OSI         0.0304 
     64 H28        -6.9872   -7.8070    7.3320 H         1 OSI         0.0304 
     65 H29        -7.6330   -6.4719    8.3456 H         1 OSI         0.0304 
     66 H30        -6.0004   -7.1432    8.6783 H         1 OSI         0.0304 
     67 H31       -10.0620    0.0781    8.7609 H         1 OSI         0.0398 
     68 H32        -9.2200   -1.3059    7.9849 H         1 OSI         0.0398 
     69 H33        -9.4336    0.2342    7.0854 H         1 OSI         0.0398 
     70 H70        -5.1919   -6.3079    6.5638 H         1 OSI         0.0000 
     71 H71        -8.5058    4.2148    6.5351 H         1 OSI         0.0000 
@<TRIPOS>BOND
     1    1    2 1    
     2    1   38 1    
     3    1   39 1    
     4    1   40 1    
     5    2   10 ar   
     6    2    3 ar   
     7    3    4 ar   
     8    3   41 1    
     9    4    5 ar   
    10    4   11 1    
    11    5   10 ar   
    12    5    6 ar   
    13    6    7 ar   
    14    6   42 1    
    15    7    8 ar   
    16    7   43 1    
    17    8    9 ar   
    18    8   44 1    
    19    9   10 ar   
    20    9   45 1    
    21   11   12 ar   
    22   11   16 ar   
    23   12   13 ar   
    24   12   71 1    
    25   13   17 2    
    26   13   14 ar   
    27   14   15 ar   
    28   15   16 ar   
    29   15   46 1    
    30   16   47 1    
    31   17   18 1    
    32   18   23 ar   
    33   18   19 ar   
    34   19   20 ar   
    35   19   36 1    
    36   20   21 ar   
    37   20   48 1    
    38   21   22 ar   
    39   21   29 1    
    40   22   23 ar   
    41   22   24 1    
    42   23   49 1    
    43   24   25 am   BACKBONE|DICT|INTERRES
    44   24   50 1    
    45   25   26 2    
    46   25   27 1    
    47   27   28 2    
    48   27   51 1    
    49   28   52 1    
    50   28   53 1    
    51   29   30 1    
    52   29   31 1    
    53   30   54 1    
    54   30   55 1    
    55   30   56 1    
    56   31   32 1    
    57   31   57 1    
    58   31   58 1    
    59   32   33 1    
    60   32   59 1    
    61   32   60 1    
    62   33   34 1    
    63   33   35 1    
    64   33   70 1    
    65   34   61 1    
    66   34   62 1    
    67   34   63 1    
    68   35   64 1    
    69   35   65 1    
    70   35   66 1    
    71   36   37 1    
    72   37   67 1    
    73   37   68 1    
    74   37   69 1    
@<TRIPOS>SUBSTRUCTURE
     1 OSI         1 GROUP             0       ****    0 ROOT    
@<TRIPOS>MOLECULE
~{N}-[2-[2-(dimethylamino)ethyl-methyl-amino]-4-methoxy-5-[[4-(1-methylindol-3-yl)pyrimidin-2-yl]amino]phenyl]prop-2-enamide
71   74    1
SMALL
USER_CHARGES


@<TRIPOS>ATOM
      1 C1        -11.2390    8.2949    3.0778 C.3       1 OSI         0.2082 
      2 N1        -10.3709    7.4876    3.9078 N.pl3     1 OSI        -0.4905 
      3 C2         -9.7318    6.3542    3.4820 C.ar      1 OSI         0.0617 
      4 C3         -9.0000    5.8592    4.5367 C.ar      1 OSI        -0.2375 
      5 C4         -9.2019    6.7249    5.6480 C.ar      1 OSI        -0.0629 
      6 C5         -8.7312    6.7436    6.9760 C.ar      1 OSI        -0.0875 
      7 C6         -9.1412    7.7729    7.8311 C.ar      1 OSI        -0.1522 
      8 C7        -10.0042    8.7711    7.3832 C.ar      1 OSI        -0.1170 
      9 C8        -10.4841    8.7732    6.0702 C.ar      1 OSI        -0.1386 
     10 C9        -10.0658    7.7380    5.2266 C.ar      1 OSI         0.0766 
     11 C10        -8.2051    4.6695    4.4285 C.ar      1 OSI         0.5705 
     12 N2         -8.0637    3.9524    5.5626 N.2       1 OSI        -0.7523 
     13 C11        -7.3151    2.8396    5.4416 C.ar      1 OSI         0.8794 
     14 N3         -6.7095    2.3887    4.3265 N.pl3     1 OSI        -0.7276 
     15 C12        -6.8928    3.1535    3.2303 C.ar      1 OSI         0.4615 
     16 C13        -7.6374    4.3152    3.2216 C.ar      1 OSI        -0.4065 
     17 N4         -7.1454    2.0639    6.6092 N.2       1 OSI        -0.7307 
     18 C14        -7.6128    2.2136    7.9282 C.ar      1 OSI         0.1854 
     19 C15        -6.8701    1.7262    9.0036 C.ar      1 OSI         0.0087 
     20 C16        -7.3450    1.8804   10.3061 C.ar      1 OSI        -0.1088 
     21 C17        -8.5626    2.5218   10.5331 C.ar      1 OSI         0.0455 
     22 C18        -9.3054    3.0091    9.4577 C.ar      1 OSI         0.1089 
     23 C19        -8.8304    2.8550    8.1552 C.ar      1 OSI        -0.1692 
     24 N5        -10.5273    3.6565    9.6615 N.am      1 OSI        -0.4594 
     25 C20       -11.3860    4.1981    8.6974 C.2       1 OSI         0.6607 
     26 O1        -11.2253    4.2064    7.4827 O.2       1 OSI        -0.5885 
     27 C21       -12.5967    4.8065    9.3216 C.2       1 OSI        -0.2404 
     28 C22       -13.5385    5.3771    8.5638 C.2       1 OSI        -0.1318 
     29 N6         -9.0240    2.6667   11.8606 N.pl3     1 OSI        -0.7102 
     30 C23        -9.8566    1.6454   12.4612 C.3       1 OSI         0.2005 
     31 C24        -8.6577    3.8316   12.6392 C.3       1 OSI         0.2105 
     32 C25        -7.3730    3.6110   13.4127 C.3       1 OSI         0.1398 
     33 N7         -7.0029    4.7637   14.1884 N.4       1 OSI        -0.7456 
     34 C26        -6.3474    5.7829   13.3541 C.3       1 OSI         0.1612 
     35 C27        -6.1152    4.3969   15.3029 C.3       1 OSI         0.1612 
     36 O2         -5.6781    1.0964    8.8026 O.3       1 OSI        -0.3487 
     37 C28        -4.5083    1.9117    8.7953 C.3       1 OSI         0.1129 
     38 H1        -11.2973    7.8547    2.0714 H         1 OSI         0.0514 
     39 H2        -10.8349    9.3156    3.0088 H         1 OSI         0.0514 
     40 H3        -12.2446    8.3279    3.5225 H         1 OSI         0.0514 
     41 H4         -9.7217    5.8814    2.6009 H         1 OSI         0.1770 
     42 H5         -8.1117    6.0331    7.3098 H         1 OSI         0.1380 
     43 H6         -8.8145    7.7979    8.7759 H         1 OSI         0.1297 
     44 H7        -10.2797    9.4935    8.0174 H         1 OSI         0.1297 
     45 H8        -11.1028    9.4972    5.7652 H         1 OSI         0.1315 
     46 H9         -6.4521    2.8359    2.3907 H         1 OSI         0.0298 
     47 H10        -7.7364    4.8393    2.3758 H         1 OSI         0.1589 
     48 H12        -6.7620    1.4983   11.1409 H         1 OSI         0.1439 
     49 H13        -9.4089    3.2354    7.3157 H         1 OSI         0.1989 
     50 H14       -10.9166    3.7880   10.6819 H         1 OSI         0.3330 
     51 H15       -12.7106    4.7827   10.4154 H         1 OSI         0.1312 
     52 H16       -14.4274    5.8229    9.0340 H         1 OSI         0.1300 
     53 H17       -13.4246    5.4009    7.4700 H         1 OSI         0.1300 
     54 H18       -10.1108    1.9382   13.4906 H         1 OSI         0.0302 
     55 H19        -9.3118    0.6899   12.4757 H         1 OSI         0.0302 
     56 H20       -10.7796    1.5324   11.8735 H         1 OSI         0.0302 
     57 H21        -8.5131    4.6908   11.9677 H         1 OSI         0.0544 
     58 H22        -9.4587    4.0589   13.3581 H         1 OSI         0.0544 
     59 H23        -7.5004    2.7621   14.1006 H         1 OSI         0.0349 
     60 H24        -6.5547    3.3941   12.7103 H         1 OSI         0.0349 
     61 H25        -6.0781    6.6487   13.9769 H         1 OSI         0.0304 
     62 H26        -7.0359    6.1035   12.5583 H         1 OSI         0.0304 
     63 H27        -5.4382    5.3584   12.9033 H         1 OSI         0.0304 
     64 H28        -5.8520    5.2993   15.8742 H         1 OSI         0.0304 
     65 H29        -5.1997    3.9345   14.9055 H         1 OSI         0.0304 
     66 H30        -6.6303    3.6827   15.9622 H         1 OSI         0.0304 
     67 H31        -3.6231    1.2814    8.6245 H         1 OSI         0.0398 
     68 H32        -4.4123    2.4239    9.7640 H         1 OSI         0.0398 
     69 H33        -4.5871    2.6588    7.9917 H         1 OSI         0.0398 
     70 H70        -7.9460    5.1659   14.5868 H         1 OSI         0.0000 
     71 H71        -6.1022    1.4737    4.2635 H         1 OSI         0.0000 
@<TRIPOS>BOND
     1    1    2 1    
     2    1   38 1    
     3    1   39 1    
     4    1   40 1    
     5    2   10 ar   
     6    2    3 ar   
     7    3    4 ar   
     8    3   41 1    
     9    4    5 ar   
    10    4   11 1    
    11    5   10 ar   
    12    5    6 ar   
    13    6    7 ar   
    14    6   42 1    
    15    7    8 ar   
    16    7   43 1    
    17    8    9 ar   
    18    8   44 1    
    19    9   10 ar   
    20    9   45 1    
    21   11   12 ar   
    22   11   16 ar   
    23   12   13 ar   
    24   13   17 2    
    25   13   14 ar   
    26   14   15 ar   
    27   14   71 1    
    28   15   16 ar   
    29   15   46 1    
    30   16   47 1    
    31   17   18 1    
    32   18   23 ar   
    33   18   19 ar   
    34   19   20 ar   
    35   19   36 1    
    36   20   21 ar   
    37   20   48 1    
    38   21   22 ar   
    39   21   29 1    
    40   22   23 ar   
    41   22   24 1    
    42   23   49 1    
    43   24   25 am   BACKBONE|DICT|INTERRES
    44   24   50 1    
    45   25   26 2    
    46   25   27 1    
    47   27   28 2    
    48   27   51 1    
    49   28   52 1    
    50   28   53 1    
    51   29   30 1    
    52   29   31 1    
    53   30   54 1    
    54   30   55 1    
    55   30   56 1    
    56   31   32 1    
    57   31   57 1    
    58   31   58 1    
    59   32   33 1    
    60   32   59 1    
    61   32   60 1    
    62   33   34 1    
    63   33   35 1    
    64   33   70 1    
    65   34   61 1    
    66   34   62 1    
    67   34   63 1    
    68   35   64 1    
    69   35   65 1    
    70   35   66 1    
    71   36   37 1    
    72   37   67 1    
    73   37   68 1    
    74   37   69 1    
@<TRIPOS>SUBSTRUCTURE
     1 OSI         1 GROUP             0       ****    0 ROOT    
@<TRIPOS>MOLECULE
~{N}-[2-[2-(dimethylamino)ethyl-methyl-amino]-4-methoxy-5-[[4-(1-methylindol-3-yl)pyrimidin-2-yl]amino]phenyl]prop-2-enamide
71   74    1
SMALL
USER_CHARGES


@<TRIPOS>ATOM
      1 C1        -11.2390    8.2949    3.0778 C.3       1 OSI         0.2082 
      2 N1        -10.3709    7.4876    3.9078 N.pl3     1 OSI        -0.4905 
      3 C2         -9.7318    6.3542    3.4820 C.ar      1 OSI         0.0617 
      4 C3         -9.0000    5.8592    4.5367 C.ar      1 OSI        -0.2375 
      5 C4         -9.2019    6.7249    5.6480 C.ar      1 OSI        -0.0629 
      6 C5         -8.7312    6.7436    6.9760 C.ar      1 OSI        -0.0875 
      7 C6         -9.1412    7.7729    7.8311 C.ar      1 OSI        -0.1522 
      8 C7        -10.0042    8.7711    7.3832 C.ar      1 OSI        -0.1170 
      9 C8        -10.4841    8.7732    6.0702 C.ar      1 OSI        -0.1386 
     10 C9        -10.0658    7.7380    5.2266 C.ar      1 OSI         0.0766 
     11 C10        -8.2051    4.6695    4.4285 C.ar      1 OSI         0.5705 
     12 N2         -8.0637    3.9524    5.5626 N.2       1 OSI        -0.7523 
     13 C11        -7.3151    2.8396    5.4416 C.ar      1 OSI         0.8794 
     14 N3         -6.7095    2.3887    4.3265 N.pl3     1 OSI        -0.7276 
     15 C12        -6.8928    3.1535    3.2303 C.ar      1 OSI         0.4615 
     16 C13        -7.6374    4.3152    3.2216 C.ar      1 OSI        -0.4065 
     17 N4         -7.1454    2.0639    6.6092 N.2       1 OSI        -0.7307 
     18 C14        -6.4491    0.8679    6.8651 C.ar      1 OSI         0.1854 
     19 C15        -6.8922   -0.0140    7.8507 C.ar      1 OSI         0.0087 
     20 C16        -6.1925   -1.1957    8.0950 C.ar      1 OSI        -0.1088 
     21 C17        -5.0497   -1.4954    7.3537 C.ar      1 OSI         0.0455 
     22 C18        -4.6064   -0.6135    6.3681 C.ar      1 OSI         0.1089 
     23 C19        -5.3063    0.5682    6.1238 C.ar      1 OSI        -0.1692 
     24 N5         -3.4648   -0.8940    5.6119 N.am      1 OSI        -0.4594 
     25 C20        -2.8941   -0.1194    4.5949 C.2       1 OSI         0.6607 
     26 O1         -3.2927    0.9597    4.1728 O.2       1 OSI        -0.5885 
     27 C21        -1.6746   -0.7678    4.0309 C.2       1 OSI        -0.2404 
     28 C22        -0.9860   -0.1811    3.0468 C.2       1 OSI        -0.1318 
     29 N6         -4.3569   -2.6980    7.6182 N.pl3     1 OSI        -0.7102 
     30 C23        -3.2941   -2.7289    8.6013 C.3       1 OSI         0.2005 
     31 C24        -4.7117   -3.9156    6.9188 C.3       1 OSI         0.2105 
     32 C25        -5.7764   -4.7005    7.6589 C.3       1 OSI         0.1398 
     33 N7         -6.1339   -5.9111    6.9703 N.4       1 OSI        -0.7456 
     34 C26        -7.0708   -5.6437    5.8680 C.3       1 OSI         0.1612 
     35 C27        -6.7260   -6.8954    7.8896 C.3       1 OSI         0.1612 
     36 O2         -8.0066    0.2609    8.5860 O.3       1 OSI        -0.3487 
     37 C28        -9.2517   -0.2101    8.0751 C.3       1 OSI         0.1129 
     38 H1        -11.2973    7.8547    2.0714 H         1 OSI         0.0514 
     39 H2        -10.8349    9.3156    3.0088 H         1 OSI         0.0514 
     40 H3        -12.2446    8.3279    3.5225 H         1 OSI         0.0514 
     41 H4         -9.7217    5.8814    2.6009 H         1 OSI         0.1770 
     42 H5         -8.1117    6.0331    7.3098 H         1 OSI         0.1380 
     43 H6         -8.8145    7.7979    8.7759 H         1 OSI         0.1297 
     44 H7        -10.2797    9.4935    8.0174 H         1 OSI         0.1297 
     45 H8        -11.1028    9.4972    5.7652 H         1 OSI         0.1315 
     46 H9         -6.4521    2.8359    2.3907 H         1 OSI         0.0298 
     47 H10        -7.7364    4.8393    2.3758 H         1 OSI         0.1589 
     48 H12        -6.5423   -1.8797    8.8648 H         1 OSI         0.1439 
     49 H13        -4.9616    1.2565    5.3546 H         1 OSI         0.1989 
     50 H14        -2.9013   -1.8217    5.7901 H         1 OSI         0.3330 
     51 H15        -1.3435   -1.7371    4.4319 H         1 OSI         0.1312 
     52 H16        -0.0881   -0.6677    2.6379 H         1 OSI         0.1300 
     53 H17        -1.3171    0.7882    2.6458 H         1 OSI         0.1300 
     54 H18        -2.8813   -3.7466    8.6632 H         1 OSI         0.0302 
     55 H19        -3.6941   -2.4352    9.5830 H         1 OSI         0.0302 
     56 H20        -2.4997   -2.0283    8.3046 H         1 OSI         0.0302 
     57 H21        -5.0991   -3.6652    5.9202 H         1 OSI         0.0544 
     58 H22        -3.8210   -4.5530    6.8173 H         1 OSI         0.0544 
     59 H23        -5.4039   -4.9722    8.6576 H         1 OSI         0.0349 
     60 H24        -6.6820   -4.0844    7.7604 H         1 OSI         0.0349 
     61 H25        -7.3229   -6.5882    5.3638 H         1 OSI         0.0304 
     62 H26        -6.6028   -4.9569    5.1473 H         1 OSI         0.0304 
     63 H27        -7.9873   -5.1859    6.2687 H         1 OSI         0.0304 
     64 H28        -6.9872   -7.8070    7.3320 H         1 OSI         0.0304 
     65 H29        -7.6330   -6.4719    8.3456 H         1 OSI         0.0304 
     66 H30        -6.0004   -7.1432    8.6783 H         1 OSI         0.0304 
     67 H31       -10.0620    0.0781    8.7609 H         1 OSI         0.0398 
     68 H32        -9.2200   -1.3059    7.9849 H         1 OSI         0.0398 
     69 H33        -9.4336    0.2342    7.0854 H         1 OSI         0.0398 
     70 H70        -5.1919   -6.3079    6.5638 H         1 OSI         0.0000 
     71 H71        -6.1022    1.4737    4.2635 H         1 OSI         0.0000 
@<TRIPOS>BOND
     1    1    2 1    
     2    1   38 1    
     3    1   39 1    
     4    1   40 1    
     5    2   10 ar   
     6    2    3 ar   
     7    3    4 ar   
     8    3   41 1    
     9    4    5 ar   
    10    4   11 1    
    11    5   10 ar   
    12    5    6 ar   
    13    6    7 ar   
    14    6   42 1    
    15    7    8 ar   
    16    7   43 1    
    17    8    9 ar   
    18    8   44 1    
    19    9   10 ar   
    20    9   45 1    
    21   11   12 ar   
    22   11   16 ar   
    23   12   13 ar   
    24   13   17 2    
    25   13   14 ar   
    26   14   15 ar   
    27   14   71 1    
    28   15   16 ar   
    29   15   46 1    
    30   16   47 1    
    31   17   18 1    
    32   18   23 ar   
    33   18   19 ar   
    34   19   20 ar   
    35   19   36 1    
    36   20   21 ar   
    37   20   48 1    
    38   21   22 ar   
    39   21   29 1    
    40   22   23 ar   
    41   22   24 1    
    42   23   49 1    
    43   24   25 am   BACKBONE|DICT|INTERRES
    44   24   50 1    
    45   25   26 2    
    46   25   27 1    
    47   27   28 2    
    48   27   51 1    
    49   28   52 1    
    50   28   53 1    
    51   29   30 1    
    52   29   31 1    
    53   30   54 1    
    54   30   55 1    
    55   30   56 1    
    56   31   32 1    
    57   31   57 1    
    58   31   58 1    
    59   32   33 1    
    60   32   59 1    
    61   32   60 1    
    62   33   34 1    
    63   33   35 1    
    64   33   70 1    
    65   34   61 1    
    66   34   62 1    
    67   34   63 1    
    68   35   64 1    
    69   35   65 1    
    70   35   66 1    
    71   36   37 1    
    72   37   67 1    
    73   37   68 1    
    74   37   69 1    
@<TRIPOS>SUBSTRUCTURE
     1 OSI         1 GROUP             0       ****    0 ROOT    
@<TRIPOS>MOLECULE
~{N}-[2-[2-(dimethylamino)ethyl-methyl-amino]-4-methoxy-5-[[4-(1-methylindol-3-yl)pyrimidin-2-yl]amino]phenyl]prop-2-enamide
73   76    1
SMALL
USER_CHARGES


@<TRIPOS>ATOM
      1 C1        -11.2397    8.2942    3.0775 C.3       1 OSI         0.2082 
      2 N1        -10.3716    7.4871    3.9075 N.pl3     1 OSI        -0.4905 
      3 C2         -9.7322    6.3538    3.4818 C.ar      1 OSI         0.0617 
      4 C3         -9.0005    5.8589    4.5366 C.ar      1 OSI        -0.2375 
      5 C4         -9.2027    6.7245    5.6479 C.ar      1 OSI        -0.0629 
      6 C5         -8.7321    6.7433    6.9759 C.ar      1 OSI        -0.0875 
      7 C6         -9.1424    7.7725    7.8310 C.ar      1 OSI        -0.1522 
      8 C7        -10.0056    8.7705    7.3830 C.ar      1 OSI        -0.1170 
      9 C8        -10.4853    8.7726    6.0700 C.ar      1 OSI        -0.1386 
     10 C9        -10.0667    7.7375    5.2264 C.ar      1 OSI         0.0766 
     11 C10        -8.2053    4.6694    4.4284 C.ar      1 OSI         0.5705 
     12 N2         -8.0637    3.9524    5.5626 N.ar      1 OSI        -0.7523 
     13 C11        -7.3151    2.8396    5.4416 C.ar      1 OSI         0.8794 
     14 N3         -6.7109    2.3878    4.3261 N.ar      1 OSI        -0.7276 
     15 C12        -6.8941    3.1527    3.2299 C.ar      1 OSI         0.4615 
     16 C13        -7.6382    4.3147    3.2214 C.ar      1 OSI        -0.4065 
     17 N4         -7.1454    2.0639    6.6092 N.pl3     1 OSI        -0.7307 
     18 C14        -7.6128    2.2136    7.9282 C.ar      1 OSI         0.1854 
     19 C15        -6.8701    1.7262    9.0036 C.ar      1 OSI         0.0087 
     20 C16        -7.3450    1.8804   10.3061 C.ar      1 OSI        -0.1088 
     21 C17        -8.5626    2.5218   10.5331 C.ar      1 OSI         0.0455 
     22 C18        -9.3054    3.0091    9.4577 C.ar      1 OSI         0.1089 
     23 C19        -8.8304    2.8550    8.1552 C.ar      1 OSI        -0.1692 
     24 N5        -10.5273    3.6565    9.6615 N.am      1 OSI        -0.4594 
     25 C20       -11.3860    4.1981    8.6974 C.2       1 OSI         0.6607 
     26 O1        -11.2253    4.2064    7.4827 O.2       1 OSI        -0.5885 
     27 C21       -12.5967    4.8065    9.3216 C.2       1 OSI        -0.2404 
     28 C22       -13.5385    5.3771    8.5638 C.2       1 OSI        -0.1318 
     29 N6         -9.0240    2.6667   11.8606 N.4       1 OSI        -0.7102 
     30 C23        -9.8566    1.6454   12.4612 C.3       1 OSI         0.2005 
     31 C24        -8.6577    3.8316   12.6392 C.3       1 OSI         0.2105 
     32 C25        -7.3730    3.6110   13.4127 C.3       1 OSI         0.1398 
     33 N7         -7.0029    4.7637   14.1884 N.4       1 OSI        -0.7456 
     34 C26        -6.3474    5.7829   13.3541 C.3       1 OSI         0.1612 
     35 C27        -6.1152    4.3969   15.3029 C.3       1 OSI         0.1612 
     36 O2         -5.6781    1.0964    8.8026 O.3       1 OSI        -0.3487 
     37 C28        -4.5083    1.9117    8.7953 C.3       1 OSI         0.1129 
     38 H1        -11.2978    7.8541    2.0711 H         1 OSI         0.0514 
     39 H2        -10.8358    9.3150    3.0085 H         1 OSI         0.0514 
     40 H3        -12.2454    8.3270    3.5220 H         1 OSI         0.0514 
     41 H4         -9.8536    5.9989    2.4662 H         1 OSI         0.1770 
     42 H5         -8.0590    5.9728    7.3411 H         1 OSI         0.1380 
     43 H6         -8.7828    7.7922    8.8564 H         1 OSI         0.1297 
     44 H7        -10.3114    9.5603    8.0644 H         1 OSI         0.1297 
     45 H8        -11.1571    9.5522    5.7266 H         1 OSI         0.1315 
     46 H9         -6.4097    2.7934    2.3281 H         1 OSI         0.0298 
     47 H10        -7.7593    4.8995    2.3179 H         1 OSI         0.1589 
     48 H11        -6.5444    1.1432    6.5753 H         1 OSI         0.4660 
     49 H12        -6.7620    1.4983   11.1409 H         1 OSI         0.1439 
     50 H13        -9.4089    3.2354    7.3157 H         1 OSI         0.1989 
     51 H15       -12.7106    4.7827   10.4154 H         1 OSI         0.1312 
     52 H16       -14.4274    5.8229    9.0340 H         1 OSI         0.1300 
     53 H17       -13.4246    5.4009    7.4700 H         1 OSI         0.1300 
     54 H18       -10.1108    1.9382   13.4906 H         1 OSI         0.0302 
     55 H19        -9.3118    0.6899   12.4757 H         1 OSI         0.0302 
     56 H20       -10.7796    1.5324   11.8735 H         1 OSI         0.0302 
     57 H21        -8.5131    4.6908   11.9677 H         1 OSI         0.0544 
     58 H22        -9.4587    4.0589   13.3581 H         1 OSI         0.0544 
     59 H23        -7.5004    2.7621   14.1006 H         1 OSI         0.0349 
     60 H24        -6.5547    3.3941   12.7103 H         1 OSI         0.0349 
     61 H25        -6.0781    6.6487   13.9769 H         1 OSI         0.0304 
     62 H26        -7.0359    6.1035   12.5583 H         1 OSI         0.0304 
     63 H27        -5.4382    5.3584   12.9033 H         1 OSI         0.0304 
     64 H28        -5.8520    5.2993   15.8742 H         1 OSI         0.0304 
     65 H29        -5.1997    3.9345   14.9055 H         1 OSI         0.0304 
     66 H30        -6.6303    3.6827   15.9622 H         1 OSI         0.0304 
     67 H31        -3.6231    1.2814    8.6245 H         1 OSI         0.0398 
     68 H32        -4.4123    2.4239    9.7640 H         1 OSI         0.0398 
     69 H33        -4.5871    2.6588    7.9917 H         1 OSI         0.0398 
     70 H70        -7.9460    5.1659   14.5868 H         1 OSI         0.0000 
     71 H71       -11.9817    4.6680    6.8310 H         1 OSI         0.0000 
     72 H72        -9.9228    3.1826   11.4919 H         1 OSI         0.0000 
     73 H73       -10.9166    3.7880   10.6819 H         1 OSI         0.0000 
@<TRIPOS>BOND
     1    1    2 1    
     2    1   38 1    
     3    1   39 1    
     4    1   40 1    
     5    2   10 ar   
     6    2    3 ar   
     7    3    4 ar   
     8    3   41 1    
     9    4    5 ar   
    10    4   11 1    
    11    5   10 ar   
    12    5    6 ar   
    13    6    7 ar   
    14    6   42 1    
    15    7    8 ar   
    16    7   43 1    
    17    8    9 ar   
    18    8   44 1    
    19    9   10 ar   
    20    9   45 1    
    21   11   16 ar   
    22   11   12 ar   
    23   12   13 ar   
    24   13   14 ar   
    25   13   17 1    
    26   14   15 ar   
    27   15   16 ar   
    28   15   46 1    
    29   16   47 1    
    30   17   18 1    
    31   17   48 1    
    32   18   23 ar   
    33   18   19 ar   
    34   19   20 ar   
    35   19   36 1    
    36   20   21 ar   
    37   20   49 1    
    38   21   22 ar   
    39   21   29 1    
    40   22   23 ar   
    41   22   24 1    
    42   23   50 1    
    43   24   25 am   BACKBONE|DICT|INTERRES
    44   24   73 1    
    45   25   26 2    
    46   25   27 1    
    47   26   71 1    
    48   27   28 2    
    49   27   51 1    
    50   28   52 1    
    51   28   53 1    
    52   29   30 1    
    53   29   31 1    
    54   29   72 1    
    55   30   54 1    
    56   30   55 1    
    57   30   56 1    
    58   31   32 1    
    59   31   57 1    
    60   31   58 1    
    61   32   33 1    
    62   32   59 1    
    63   32   60 1    
    64   33   34 1    
    65   33   35 1    
    66   33   70 1    
    67   34   61 1    
    68   34   62 1    
    69   34   63 1    
    70   35   64 1    
    71   35   65 1    
    72   35   66 1    
    73   36   37 1    
    74   37   67 1    
    75   37   68 1    
    76   37   69 1    
@<TRIPOS>SUBSTRUCTURE
     1 OSI         1 GROUP             0       ****    0 ROOT    
@<TRIPOS>MOLECULE
~{N}-[2-[2-(dimethylamino)ethyl-methyl-amino]-4-methoxy-5-[[4-(1-methylindol-3-yl)pyrimidin-2-yl]amino]phenyl]prop-2-enamide
72   75    1
SMALL
USER_CHARGES


@<TRIPOS>ATOM
      1 C1        -11.2397    8.2942    3.0775 C.3       1 OSI         0.2082 
      2 N1        -10.3716    7.4871    3.9075 N.pl3     1 OSI        -0.4905 
      3 C2         -9.7322    6.3538    3.4818 C.ar      1 OSI         0.0617 
      4 C3         -9.0005    5.8589    4.5366 C.ar      1 OSI        -0.2375 
      5 C4         -9.2027    6.7245    5.6479 C.ar      1 OSI        -0.0629 
      6 C5         -8.7321    6.7433    6.9759 C.ar      1 OSI        -0.0875 
      7 C6         -9.1424    7.7725    7.8310 C.ar      1 OSI        -0.1522 
      8 C7        -10.0056    8.7705    7.3830 C.ar      1 OSI        -0.1170 
      9 C8        -10.4853    8.7726    6.0700 C.ar      1 OSI        -0.1386 
     10 C9        -10.0667    7.7375    5.2264 C.ar      1 OSI         0.0766 
     11 C10        -8.2053    4.6694    4.4284 C.ar      1 OSI         0.5705 
     12 N2         -8.0637    3.9524    5.5626 N.pl3     1 OSI        -0.7523 
     13 C11        -7.3151    2.8396    5.4416 C.ar      1 OSI         0.8794 
     14 N3         -6.7109    2.3878    4.3261 N.ar      1 OSI        -0.7276 
     15 C12        -6.8941    3.1527    3.2299 C.ar      1 OSI         0.4615 
     16 C13        -7.6382    4.3147    3.2214 C.ar      1 OSI        -0.4065 
     17 N4         -7.1454    2.0639    6.6092 N.pl3     1 OSI        -0.7307 
     18 C14        -7.6128    2.2136    7.9282 C.ar      1 OSI         0.1854 
     19 C15        -6.8701    1.7262    9.0036 C.ar      1 OSI         0.0087 
     20 C16        -7.3450    1.8804   10.3061 C.ar      1 OSI        -0.1088 
     21 C17        -8.5626    2.5218   10.5331 C.ar      1 OSI         0.0455 
     22 C18        -9.3054    3.0091    9.4577 C.ar      1 OSI         0.1089 
     23 C19        -8.8304    2.8550    8.1552 C.ar      1 OSI        -0.1692 
     24 N5        -10.5273    3.6565    9.6615 N.am      1 OSI        -0.4594 
     25 C20       -11.3860    4.1981    8.6974 C.2       1 OSI         0.6607 
     26 O1        -11.2253    4.2064    7.4827 O.2       1 OSI        -0.5885 
     27 C21       -12.5967    4.8065    9.3216 C.2       1 OSI        -0.2404 
     28 C22       -13.5385    5.3771    8.5638 C.2       1 OSI        -0.1318 
     29 N6         -9.0240    2.6667   11.8606 N.pl3     1 OSI        -0.7102 
     30 C23        -9.8566    1.6454   12.4612 C.3       1 OSI         0.2005 
     31 C24        -8.6577    3.8316   12.6392 C.3       1 OSI         0.2105 
     32 C25        -7.3730    3.6110   13.4127 C.3       1 OSI         0.1398 
     33 N7         -7.0029    4.7637   14.1884 N.4       1 OSI        -0.7456 
     34 C26        -6.3474    5.7829   13.3541 C.3       1 OSI         0.1612 
     35 C27        -6.1152    4.3969   15.3029 C.3       1 OSI         0.1612 
     36 O2         -5.6781    1.0964    8.8026 O.3       1 OSI        -0.3487 
     37 C28        -4.5083    1.9117    8.7953 C.3       1 OSI         0.1129 
     38 H1        -11.2978    7.8541    2.0711 H         1 OSI         0.0514 
     39 H2        -10.8358    9.3150    3.0085 H         1 OSI         0.0514 
     40 H3        -12.2454    8.3270    3.5220 H         1 OSI         0.0514 
     41 H4         -9.8536    5.9989    2.4662 H         1 OSI         0.1770 
     42 H5         -8.0590    5.9728    7.3411 H         1 OSI         0.1380 
     43 H6         -8.7828    7.7922    8.8564 H         1 OSI         0.1297 
     44 H7        -10.3114    9.5603    8.0644 H         1 OSI         0.1297 
     45 H8        -11.1571    9.5522    5.7266 H         1 OSI         0.1315 
     46 H9         -6.4097    2.7934    2.3281 H         1 OSI         0.0298 
     47 H10        -7.7593    4.8995    2.3179 H         1 OSI         0.1589 
     48 H11        -6.5444    1.1432    6.5753 H         1 OSI         0.4660 
     49 H12        -6.7620    1.4983   11.1409 H         1 OSI         0.1439 
     50 H13        -9.4089    3.2354    7.3157 H         1 OSI         0.1989 
     51 H14       -10.9166    3.7880   10.6819 H         1 OSI         0.3330 
     52 H15       -12.7106    4.7827   10.4154 H         1 OSI         0.1312 
     53 H16       -14.4274    5.8229    9.0340 H         1 OSI         0.1300 
     54 H17       -13.4246    5.4009    7.4700 H         1 OSI         0.1300 
     55 H18       -10.1108    1.9382   13.4906 H         1 OSI         0.0302 
     56 H19        -9.3118    0.6899   12.4757 H         1 OSI         0.0302 
     57 H20       -10.7796    1.5324   11.8735 H         1 OSI         0.0302 
     58 H21        -8.5131    4.6908   11.9677 H         1 OSI         0.0544 
     59 H22        -9.4587    4.0589   13.3581 H         1 OSI         0.0544 
     60 H23        -7.5004    2.7621   14.1006 H         1 OSI         0.0349 
     61 H24        -6.5547    3.3941   12.7103 H         1 OSI         0.0349 
     62 H25        -6.0781    6.6487   13.9769 H         1 OSI         0.0304 
     63 H26        -7.0359    6.1035   12.5583 H         1 OSI         0.0304 
     64 H27        -5.4382    5.3584   12.9033 H         1 OSI         0.0304 
     65 H28        -5.8520    5.2993   15.8742 H         1 OSI         0.0304 
     66 H29        -5.1997    3.9345   14.9055 H         1 OSI         0.0304 
     67 H30        -6.6303    3.6827   15.9622 H         1 OSI         0.0304 
     68 H31        -3.6231    1.2814    8.6245 H         1 OSI         0.0398 
     69 H32        -4.4123    2.4239    9.7640 H         1 OSI         0.0398 
     70 H33        -4.5871    2.6588    7.9917 H         1 OSI         0.0398 
     71 H71        -7.9460    5.1659   14.5868 H         1 OSI         0.0000 
     72 H72        -8.5436    4.2928    6.4920 H         1 OSI         0.0000 
@<TRIPOS>BOND
     1    1    2 1    
     2    1   38 1    
     3    1   39 1    
     4    1   40 1    
     5    2   10 ar   
     6    2    3 ar   
     7    3    4 ar   
     8    3   41 1    
     9    4    5 ar   
    10    4   11 1    
    11    5   10 ar   
    12    5    6 ar   
    13    6    7 ar   
    14    6   42 1    
    15    7    8 ar   
    16    7   43 1    
    17    8    9 ar   
    18    8   44 1    
    19    9   10 ar   
    20    9   45 1    
    21   11   16 ar   
    22   11   12 ar   
    23   12   13 ar   
    24   12   72 1    
    25   13   14 ar   
    26   13   17 1    
    27   14   15 ar   
    28   15   16 ar   
    29   15   46 1    
    30   16   47 1    
    31   17   18 1    
    32   17   48 1    
    33   18   23 ar   
    34   18   19 ar   
    35   19   20 ar   
    36   19   36 1    
    37   20   21 ar   
    38   20   49 1    
    39   21   22 ar   
    40   21   29 1    
    41   22   23 ar   
    42   22   24 1    
    43   23   50 1    
    44   24   25 am   BACKBONE|DICT|INTERRES
    45   24   51 1    
    46   25   26 2    
    47   25   27 1    
    48   27   28 2    
    49   27   52 1    
    50   28   53 1    
    51   28   54 1    
    52   29   30 1    
    53   29   31 1    
    54   30   55 1    
    55   30   56 1    
    56   30   57 1    
    57   31   32 1    
    58   31   58 1    
    59   31   59 1    
    60   32   33 1    
    61   32   60 1    
    62   32   61 1    
    63   33   34 1    
    64   33   35 1    
    65   33   71 1    
    66   34   62 1    
    67   34   63 1    
    68   34   64 1    
    69   35   65 1    
    70   35   66 1    
    71   35   67 1    
    72   36   37 1    
    73   37   68 1    
    74   37   69 1    
    75   37   70 1    
@<TRIPOS>SUBSTRUCTURE
     1 OSI         1 GROUP             0       ****    0 ROOT    
@<TRIPOS>MOLECULE
~{N}-[2-[2-(dimethylamino)ethyl-methyl-amino]-4-methoxy-5-[[4-(1-methylindol-3-yl)pyrimidin-2-yl]amino]phenyl]prop-2-enamide
72   75    1
SMALL
USER_CHARGES


@<TRIPOS>ATOM
      1 C1        -11.2397    8.2942    3.0775 C.3       1 OSI         0.2082 
      2 N1        -10.3716    7.4871    3.9075 N.pl3     1 OSI        -0.4905 
      3 C2         -9.7322    6.3538    3.4818 C.ar      1 OSI         0.0617 
      4 C3         -9.0005    5.8589    4.5366 C.ar      1 OSI        -0.2375 
      5 C4         -9.2027    6.7245    5.6479 C.ar      1 OSI        -0.0629 
      6 C5         -8.7321    6.7433    6.9759 C.ar      1 OSI        -0.0875 
      7 C6         -9.1424    7.7725    7.8310 C.ar      1 OSI        -0.1522 
      8 C7        -10.0056    8.7705    7.3830 C.ar      1 OSI        -0.1170 
      9 C8        -10.4853    8.7726    6.0700 C.ar      1 OSI        -0.1386 
     10 C9        -10.0667    7.7375    5.2264 C.ar      1 OSI         0.0766 
     11 C10        -8.2053    4.6694    4.4284 C.ar      1 OSI         0.5705 
     12 N2         -8.0637    3.9524    5.5626 N.ar      1 OSI        -0.7523 
     13 C11        -7.3151    2.8396    5.4416 C.ar      1 OSI         0.8794 
     14 N3         -6.7109    2.3878    4.3261 N.pl3     1 OSI        -0.7276 
     15 C12        -6.8941    3.1527    3.2299 C.ar      1 OSI         0.4615 
     16 C13        -7.6382    4.3147    3.2214 C.ar      1 OSI        -0.4065 
     17 N4         -7.1454    2.0639    6.6092 N.pl3     1 OSI        -0.7307 
     18 C14        -7.6128    2.2136    7.9282 C.ar      1 OSI         0.1854 
     19 C15        -6.8701    1.7262    9.0036 C.ar      1 OSI         0.0087 
     20 C16        -7.3450    1.8804   10.3061 C.ar      1 OSI        -0.1088 
     21 C17        -8.5626    2.5218   10.5331 C.ar      1 OSI         0.0455 
     22 C18        -9.3054    3.0091    9.4577 C.ar      1 OSI         0.1089 
     23 C19        -8.8304    2.8550    8.1552 C.ar      1 OSI        -0.1692 
     24 N5        -10.5273    3.6565    9.6615 N.am      1 OSI        -0.4594 
     25 C20       -11.3860    4.1981    8.6974 C.2       1 OSI         0.6607 
     26 O1        -11.2253    4.2064    7.4827 O.2       1 OSI        -0.5885 
     27 C21       -12.5967    4.8065    9.3216 C.2       1 OSI        -0.2404 
     28 C22       -13.5385    5.3771    8.5638 C.2       1 OSI        -0.1318 
     29 N6         -9.0240    2.6667   11.8606 N.pl3     1 OSI        -0.7102 
     30 C23        -9.8566    1.6454   12.4612 C.3       1 OSI         0.2005 
     31 C24        -8.6577    3.8316   12.6392 C.3       1 OSI         0.2105 
     32 C25        -7.3730    3.6110   13.4127 C.3       1 OSI         0.1398 
     33 N7         -7.0029    4.7637   14.1884 N.4       1 OSI        -0.7456 
     34 C26        -6.3474    5.7829   13.3541 C.3       1 OSI         0.1612 
     35 C27        -6.1152    4.3969   15.3029 C.3       1 OSI         0.1612 
     36 O2         -5.6781    1.0964    8.8026 O.3       1 OSI        -0.3487 
     37 C28        -4.5083    1.9117    8.7953 C.3       1 OSI         0.1129 
     38 H1        -11.2978    7.8541    2.0711 H         1 OSI         0.0514 
     39 H2        -10.8358    9.3150    3.0085 H         1 OSI         0.0514 
     40 H3        -12.2454    8.3270    3.5220 H         1 OSI         0.0514 
     41 H4         -9.8536    5.9989    2.4662 H         1 OSI         0.1770 
     42 H5         -8.0590    5.9728    7.3411 H         1 OSI         0.1380 
     43 H6         -8.7828    7.7922    8.8564 H         1 OSI         0.1297 
     44 H7        -10.3114    9.5603    8.0644 H         1 OSI         0.1297 
     45 H8        -11.1571    9.5522    5.7266 H         1 OSI         0.1315 
     46 H9         -6.4097    2.7934    2.3281 H         1 OSI         0.0298 
     47 H10        -7.7593    4.8995    2.3179 H         1 OSI         0.1589 
     48 H11        -6.5444    1.1432    6.5753 H         1 OSI         0.4660 
     49 H12        -6.7620    1.4983   11.1409 H         1 OSI         0.1439 
     50 H13        -9.4089    3.2354    7.3157 H         1 OSI         0.1989 
     51 H14       -10.9166    3.7880   10.6819 H         1 OSI         0.3330 
     52 H15       -12.7106    4.7827   10.4154 H         1 OSI         0.1312 
     53 H16       -14.4274    5.8229    9.0340 H         1 OSI         0.1300 
     54 H17       -13.4246    5.4009    7.4700 H         1 OSI         0.1300 
     55 H18       -10.1108    1.9382   13.4906 H         1 OSI         0.0302 
     56 H19        -9.3118    0.6899   12.4757 H         1 OSI         0.0302 
     57 H20       -10.7796    1.5324   11.8735 H         1 OSI         0.0302 
     58 H21        -8.5131    4.6908   11.9677 H         1 OSI         0.0544 
     59 H22        -9.4587    4.0589   13.3581 H         1 OSI         0.0544 
     60 H23        -7.5004    2.7621   14.1006 H         1 OSI         0.0349 
     61 H24        -6.5547    3.3941   12.7103 H         1 OSI         0.0349 
     62 H25        -6.0781    6.6487   13.9769 H         1 OSI         0.0304 
     63 H26        -7.0359    6.1035   12.5583 H         1 OSI         0.0304 
     64 H27        -5.4382    5.3584   12.9033 H         1 OSI         0.0304 
     65 H28        -5.8520    5.2993   15.8742 H         1 OSI         0.0304 
     66 H29        -5.1997    3.9345   14.9055 H         1 OSI         0.0304 
     67 H30        -6.6303    3.6827   15.9622 H         1 OSI         0.0304 
     68 H31        -3.6231    1.2814    8.6245 H         1 OSI         0.0398 
     69 H32        -4.4123    2.4239    9.7640 H         1 OSI         0.0398 
     70 H33        -4.5871    2.6588    7.9917 H         1 OSI         0.0398 
     71 H71        -7.9460    5.1659   14.5868 H         1 OSI         0.0000 
     72 H72        -6.1226    1.4589    4.3570 H         1 OSI         0.0000 
@<TRIPOS>BOND
     1    1    2 1    
     2    1   38 1    
     3    1   39 1    
     4    1   40 1    
     5    2   10 ar   
     6    2    3 ar   
     7    3    4 ar   
     8    3   41 1    
     9    4    5 ar   
    10    4   11 1    
    11    5   10 ar   
    12    5    6 ar   
    13    6    7 ar   
    14    6   42 1    
    15    7    8 ar   
    16    7   43 1    
    17    8    9 ar   
    18    8   44 1    
    19    9   10 ar   
    20    9   45 1    
    21   11   16 ar   
    22   11   12 ar   
    23   12   13 ar   
    24   13   14 ar   
    25   13   17 1    
    26   14   15 ar   
    27   14   72 1    
    28   15   16 ar   
    29   15   46 1    
    30   16   47 1    
    31   17   18 1    
    32   17   48 1    
    33   18   23 ar   
    34   18   19 ar   
    35   19   20 ar   
    36   19   36 1    
    37   20   21 ar   
    38   20   49 1    
    39   21   22 ar   
    40   21   29 1    
    41   22   23 ar   
    42   22   24 1    
    43   23   50 1    
    44   24   25 am   BACKBONE|DICT|INTERRES
    45   24   51 1    
    46   25   26 2    
    47   25   27 1    
    48   27   28 2    
    49   27   52 1    
    50   28   53 1    
    51   28   54 1    
    52   29   30 1    
    53   29   31 1    
    54   30   55 1    
    55   30   56 1    
    56   30   57 1    
    57   31   32 1    
    58   31   58 1    
    59   31   59 1    
    60   32   33 1    
    61   32   60 1    
    62   32   61 1    
    63   33   34 1    
    64   33   35 1    
    65   33   71 1    
    66   34   62 1    
    67   34   63 1    
    68   34   64 1    
    69   35   65 1    
    70   35   66 1    
    71   35   67 1    
    72   36   37 1    
    73   37   68 1    
    74   37   69 1    
    75   37   70 1    
@<TRIPOS>SUBSTRUCTURE
     1 OSI         1 GROUP             0       ****    0 ROOT    
@<TRIPOS>MOLECULE
~{N}-[2-[2-(dimethylamino)ethyl-methyl-amino]-4-methoxy-5-[[4-(1-methylindol-3-yl)pyrimidin-2-yl]amino]phenyl]prop-2-enamide
70   73    1
SMALL
USER_CHARGES


@<TRIPOS>ATOM
      1 C1        -11.2390    8.2949    3.0778 C.3       1 OSI         0.2082 
      2 N1        -10.3709    7.4876    3.9078 N.pl3     1 OSI        -0.4905 
      3 C2         -9.7318    6.3542    3.4820 C.ar      1 OSI         0.0617 
      4 C3         -9.0000    5.8592    4.5367 C.ar      1 OSI        -0.2375 
      5 C4         -9.2019    6.7249    5.6480 C.ar      1 OSI        -0.0629 
      6 C5         -8.7312    6.7436    6.9760 C.ar      1 OSI        -0.0875 
      7 C6         -9.1412    7.7729    7.8311 C.ar      1 OSI        -0.1522 
      8 C7        -10.0042    8.7711    7.3832 C.ar      1 OSI        -0.1170 
      9 C8        -10.4841    8.7732    6.0702 C.ar      1 OSI        -0.1386 
     10 C9        -10.0658    7.7380    5.2266 C.ar      1 OSI         0.0766 
     11 C10        -8.2051    4.6695    4.4285 C.ar      1 OSI         0.5705 
     12 N2         -8.0637    3.9524    5.5626 N.2       1 OSI        -0.7523 
     13 C11        -7.3151    2.8396    5.4416 C.ar      1 OSI         0.8794 
     14 N3         -6.7095    2.3887    4.3265 N.pl3     1 OSI        -0.7276 
     15 C12        -6.8928    3.1535    3.2303 C.ar      1 OSI         0.4615 
     16 C13        -7.6374    4.3152    3.2216 C.ar      1 OSI        -0.4065 
     17 N4         -7.1454    2.0639    6.6092 N.2       1 OSI        -0.7307 
     18 C14        -7.6128    2.2136    7.9282 C.ar      1 OSI         0.1854 
     19 C15        -6.8701    1.7262    9.0036 C.ar      1 OSI         0.0087 
     20 C16        -7.3450    1.8804   10.3061 C.ar      1 OSI        -0.1088 
     21 C17        -8.5626    2.5218   10.5331 C.ar      1 OSI         0.0455 
     22 C18        -9.3054    3.0091    9.4577 C.ar      1 OSI         0.1089 
     23 C19        -8.8304    2.8550    8.1552 C.ar      1 OSI        -0.1692 
     24 N5        -10.5273    3.6565    9.6615 N.am      1 OSI        -0.4594 
     25 C20       -11.3860    4.1981    8.6974 C.2       1 OSI         0.6607 
     26 O1        -11.2253    4.2064    7.4827 O.2       1 OSI        -0.5885 
     27 C21       -12.5967    4.8065    9.3216 C.2       1 OSI        -0.2404 
     28 C22       -13.5385    5.3771    8.5638 C.2       1 OSI        -0.1318 
     29 N6         -9.0240    2.6667   11.8606 N.pl3     1 OSI        -0.7102 
     30 C23        -9.8566    1.6454   12.4612 C.3       1 OSI         0.2005 
     31 C24        -8.6577    3.8316   12.6392 C.3       1 OSI         0.2105 
     32 C25        -7.3730    3.6110   13.4127 C.3       1 OSI         0.1398 
     33 N7         -7.0029    4.7637   14.1884 N.3       1 OSI        -0.7456 
     34 C26        -6.3474    5.7829   13.3541 C.3       1 OSI         0.1612 
     35 C27        -6.1152    4.3969   15.3029 C.3       1 OSI         0.1612 
     36 O2         -5.6781    1.0964    8.8026 O.3       1 OSI        -0.3487 
     37 C28        -4.5083    1.9117    8.7953 C.3       1 OSI         0.1129 
     38 H1        -11.2973    7.8547    2.0714 H         1 OSI         0.0514 
     39 H2        -10.8349    9.3156    3.0088 H         1 OSI         0.0514 
     40 H3        -12.2446    8.3279    3.5225 H         1 OSI         0.0514 
     41 H4         -9.7217    5.8814    2.6009 H         1 OSI         0.1770 
     42 H5         -8.1117    6.0331    7.3098 H         1 OSI         0.1380 
     43 H6         -8.8145    7.7979    8.7759 H         1 OSI         0.1297 
     44 H7        -10.2797    9.4935    8.0174 H         1 OSI         0.1297 
     45 H8        -11.1028    9.4972    5.7652 H         1 OSI         0.1315 
     46 H9         -6.4521    2.8359    2.3907 H         1 OSI         0.0298 
     47 H10        -7.7364    4.8393    2.3758 H         1 OSI         0.1589 
     48 H12        -6.7620    1.4983   11.1409 H         1 OSI         0.1439 
     49 H13        -9.4089    3.2354    7.3157 H         1 OSI         0.1989 
     50 H14       -10.9166    3.7880   10.6819 H         1 OSI         0.3330 
     51 H15       -12.7106    4.7827   10.4154 H         1 OSI         0.1312 
     52 H16       -14.4274    5.8229    9.0340 H         1 OSI         0.1300 
     53 H17       -13.4246    5.4009    7.4700 H         1 OSI         0.1300 
     54 H18       -10.1108    1.9382   13.4906 H         1 OSI         0.0302 
     55 H19        -9.3118    0.6899   12.4757 H         1 OSI         0.0302 
     56 H20       -10.7796    1.5324   11.8735 H         1 OSI         0.0302 
     57 H21        -8.5131    4.6908   11.9677 H         1 OSI         0.0544 
     58 H22        -9.4587    4.0589   13.3581 H         1 OSI         0.0544 
     59 H23        -7.5004    2.7621   14.1006 H         1 OSI         0.0349 
     60 H24        -6.5547    3.3941   12.7103 H         1 OSI         0.0349 
     61 H25        -6.0781    6.6487   13.9769 H         1 OSI         0.0304 
     62 H26        -7.0359    6.1035   12.5583 H         1 OSI         0.0304 
     63 H27        -5.4382    5.3584   12.9033 H         1 OSI         0.0304 
     64 H28        -5.8520    5.2993   15.8742 H         1 OSI         0.0304 
     65 H29        -5.1997    3.9345   14.9055 H         1 OSI         0.0304 
     66 H30        -6.6303    3.6827   15.9622 H         1 OSI         0.0304 
     67 H31        -3.6231    1.2814    8.6245 H         1 OSI         0.0398 
     68 H32        -4.4123    2.4239    9.7640 H         1 OSI         0.0398 
     69 H33        -4.5871    2.6588    7.9917 H         1 OSI         0.0398 
     70 H70        -6.1022    1.4737    4.2635 H         1 OSI         0.0000 
@<TRIPOS>BOND
     1    1    2 1    
     2    1   38 1    
     3    1   39 1    
     4    1   40 1    
     5    2   10 ar   
     6    2    3 ar   
     7    3    4 ar   
     8    3   41 1    
     9    4    5 ar   
    10    4   11 1    
    11    5   10 ar   
    12    5    6 ar   
    13    6    7 ar   
    14    6   42 1    
    15    7    8 ar   
    16    7   43 1    
    17    8    9 ar   
    18    8   44 1    
    19    9   10 ar   
    20    9   45 1    
    21   11   12 ar   
    22   11   16 ar   
    23   12   13 ar   
    24   13   17 2    
    25   13   14 ar   
    26   14   15 ar   
    27   14   70 1    
    28   15   16 ar   
    29   15   46 1    
    30   16   47 1    
    31   17   18 1    
    32   18   23 ar   
    33   18   19 ar   
    34   19   20 ar   
    35   19   36 1    
    36   20   21 ar   
    37   20   48 1    
    38   21   22 ar   
    39   21   29 1    
    40   22   23 ar   
    41   22   24 1    
    42   23   49 1    
    43   24   25 am   BACKBONE|DICT|INTERRES
    44   24   50 1    
    45   25   26 2    
    46   25   27 1    
    47   27   28 2    
    48   27   51 1    
    49   28   52 1    
    50   28   53 1    
    51   29   30 1    
    52   29   31 1    
    53   30   54 1    
    54   30   55 1    
    55   30   56 1    
    56   31   32 1    
    57   31   57 1    
    58   31   58 1    
    59   32   33 1    
    60   32   59 1    
    61   32   60 1    
    62   33   34 1    
    63   33   35 1    
    64   34   61 1    
    65   34   62 1    
    66   34   63 1    
    67   35   64 1    
    68   35   65 1    
    69   35   66 1    
    70   36   37 1    
    71   37   67 1    
    72   37   68 1    
    73   37   69 1    
@<TRIPOS>SUBSTRUCTURE
     1 OSI         1 GROUP             0       ****    0 ROOT    
@<TRIPOS>MOLECULE
~{N}-[2-[2-(dimethylamino)ethyl-methyl-amino]-4-methoxy-5-[[4-(1-methylindol-3-yl)pyrimidin-2-yl]amino]phenyl]prop-2-enamide
70   73    1
SMALL
USER_CHARGES


@<TRIPOS>ATOM
      1 C1        -11.2390    8.2949    3.0778 C.3       1 OSI         0.2082 
      2 N1        -10.3709    7.4876    3.9078 N.pl3     1 OSI        -0.4905 
      3 C2         -9.7318    6.3542    3.4820 C.ar      1 OSI         0.0617 
      4 C3         -9.0000    5.8592    4.5367 C.ar      1 OSI        -0.2375 
      5 C4         -9.2019    6.7249    5.6480 C.ar      1 OSI        -0.0629 
      6 C5         -8.7312    6.7436    6.9760 C.ar      1 OSI        -0.0875 
      7 C6         -9.1412    7.7729    7.8311 C.ar      1 OSI        -0.1522 
      8 C7        -10.0042    8.7711    7.3832 C.ar      1 OSI        -0.1170 
      9 C8        -10.4841    8.7732    6.0702 C.ar      1 OSI        -0.1386 
     10 C9        -10.0658    7.7380    5.2266 C.ar      1 OSI         0.0766 
     11 C10        -8.2051    4.6695    4.4285 C.ar      1 OSI         0.5705 
     12 N2         -8.0637    3.9524    5.5626 N.2       1 OSI        -0.7523 
     13 C11        -7.3151    2.8396    5.4416 C.ar      1 OSI         0.8794 
     14 N3         -6.7095    2.3887    4.3265 N.pl3     1 OSI        -0.7276 
     15 C12        -6.8928    3.1535    3.2303 C.ar      1 OSI         0.4615 
     16 C13        -7.6374    4.3152    3.2216 C.ar      1 OSI        -0.4065 
     17 N4         -7.1454    2.0639    6.6092 N.2       1 OSI        -0.7307 
     18 C14        -6.4491    0.8679    6.8651 C.ar      1 OSI         0.1854 
     19 C15        -6.8922   -0.0140    7.8507 C.ar      1 OSI         0.0087 
     20 C16        -6.1925   -1.1957    8.0950 C.ar      1 OSI        -0.1088 
     21 C17        -5.0497   -1.4954    7.3537 C.ar      1 OSI         0.0455 
     22 C18        -4.6064   -0.6135    6.3681 C.ar      1 OSI         0.1089 
     23 C19        -5.3063    0.5682    6.1238 C.ar      1 OSI        -0.1692 
     24 N5         -3.4648   -0.8940    5.6119 N.am      1 OSI        -0.4594 
     25 C20        -2.8941   -0.1194    4.5949 C.2       1 OSI         0.6607 
     26 O1         -3.2927    0.9597    4.1728 O.2       1 OSI        -0.5885 
     27 C21        -1.6746   -0.7678    4.0309 C.2       1 OSI        -0.2404 
     28 C22        -0.9860   -0.1811    3.0468 C.2       1 OSI        -0.1318 
     29 N6         -4.3569   -2.6980    7.6182 N.pl3     1 OSI        -0.7102 
     30 C23        -3.2941   -2.7289    8.6013 C.3       1 OSI         0.2005 
     31 C24        -4.7117   -3.9156    6.9188 C.3       1 OSI         0.2105 
     32 C25        -5.7764   -4.7005    7.6589 C.3       1 OSI         0.1398 
     33 N7         -6.1339   -5.9111    6.9703 N.3       1 OSI        -0.7456 
     34 C26        -7.0708   -5.6437    5.8680 C.3       1 OSI         0.1612 
     35 C27        -6.7260   -6.8954    7.8896 C.3       1 OSI         0.1612 
     36 O2         -8.0066    0.2609    8.5860 O.3       1 OSI        -0.3487 
     37 C28        -9.2517   -0.2101    8.0751 C.3       1 OSI         0.1129 
     38 H1        -11.2973    7.8547    2.0714 H         1 OSI         0.0514 
     39 H2        -10.8349    9.3156    3.0088 H         1 OSI         0.0514 
     40 H3        -12.2446    8.3279    3.5225 H         1 OSI         0.0514 
     41 H4         -9.7217    5.8814    2.6009 H         1 OSI         0.1770 
     42 H5         -8.1117    6.0331    7.3098 H         1 OSI         0.1380 
     43 H6         -8.8145    7.7979    8.7759 H         1 OSI         0.1297 
     44 H7        -10.2797    9.4935    8.0174 H         1 OSI         0.1297 
     45 H8        -11.1028    9.4972    5.7652 H         1 OSI         0.1315 
     46 H9         -6.4521    2.8359    2.3907 H         1 OSI         0.0298 
     47 H10        -7.7364    4.8393    2.3758 H         1 OSI         0.1589 
     48 H12        -6.5423   -1.8797    8.8648 H         1 OSI         0.1439 
     49 H13        -4.9616    1.2565    5.3546 H         1 OSI         0.1989 
     50 H14        -2.9013   -1.8217    5.7901 H         1 OSI         0.3330 
     51 H15        -1.3435   -1.7371    4.4319 H         1 OSI         0.1312 
     52 H16        -0.0881   -0.6677    2.6379 H         1 OSI         0.1300 
     53 H17        -1.3171    0.7882    2.6458 H         1 OSI         0.1300 
     54 H18        -2.8813   -3.7466    8.6632 H         1 OSI         0.0302 
     55 H19        -3.6941   -2.4352    9.5830 H         1 OSI         0.0302 
     56 H20        -2.4997   -2.0283    8.3046 H         1 OSI         0.0302 
     57 H21        -5.0991   -3.6652    5.9202 H         1 OSI         0.0544 
     58 H22        -3.8210   -4.5530    6.8173 H         1 OSI         0.0544 
     59 H23        -5.4039   -4.9722    8.6576 H         1 OSI         0.0349 
     60 H24        -6.6820   -4.0844    7.7604 H         1 OSI         0.0349 
     61 H25        -7.3229   -6.5882    5.3638 H         1 OSI         0.0304 
     62 H26        -6.6028   -4.9569    5.1473 H         1 OSI         0.0304 
     63 H27        -7.9873   -5.1859    6.2687 H         1 OSI         0.0304 
     64 H28        -6.9872   -7.8070    7.3320 H         1 OSI         0.0304 
     65 H29        -7.6330   -6.4719    8.3456 H         1 OSI         0.0304 
     66 H30        -6.0004   -7.1432    8.6783 H         1 OSI         0.0304 
     67 H31       -10.0620    0.0781    8.7609 H         1 OSI         0.0398 
     68 H32        -9.2200   -1.3059    7.9849 H         1 OSI         0.0398 
     69 H33        -9.4336    0.2342    7.0854 H         1 OSI         0.0398 
     70 H70        -6.1022    1.4737    4.2635 H         1 OSI         0.0000 
@<TRIPOS>BOND
     1    1    2 1    
     2    1   38 1    
     3    1   39 1    
     4    1   40 1    
     5    2   10 ar   
     6    2    3 ar   
     7    3    4 ar   
     8    3   41 1    
     9    4    5 ar   
    10    4   11 1    
    11    5   10 ar   
    12    5    6 ar   
    13    6    7 ar   
    14    6   42 1    
    15    7    8 ar   
    16    7   43 1    
    17    8    9 ar   
    18    8   44 1    
    19    9   10 ar   
    20    9   45 1    
    21   11   12 ar   
    22   11   16 ar   
    23   12   13 ar   
    24   13   17 2    
    25   13   14 ar   
    26   14   15 ar   
    27   14   70 1    
    28   15   16 ar   
    29   15   46 1    
    30   16   47 1    
    31   17   18 1    
    32   18   23 ar   
    33   18   19 ar   
    34   19   20 ar   
    35   19   36 1    
    36   20   21 ar   
    37   20   48 1    
    38   21   22 ar   
    39   21   29 1    
    40   22   23 ar   
    41   22   24 1    
    42   23   49 1    
    43   24   25 am   BACKBONE|DICT|INTERRES
    44   24   50 1    
    45   25   26 2    
    46   25   27 1    
    47   27   28 2    
    48   27   51 1    
    49   28   52 1    
    50   28   53 1    
    51   29   30 1    
    52   29   31 1    
    53   30   54 1    
    54   30   55 1    
    55   30   56 1    
    56   31   32 1    
    57   31   57 1    
    58   31   58 1    
    59   32   33 1    
    60   32   59 1    
    61   32   60 1    
    62   33   34 1    
    63   33   35 1    
    64   34   61 1    
    65   34   62 1    
    66   34   63 1    
    67   35   64 1    
    68   35   65 1    
    69   35   66 1    
    70   36   37 1    
    71   37   67 1    
    72   37   68 1    
    73   37   69 1    
@<TRIPOS>SUBSTRUCTURE
     1 OSI         1 GROUP             0       ****    0 ROOT    
