@<TRIPOS>MOLECULE
2-[5-methoxy-~{N}-methyl-4-[[4-(1-methylindol-3-yl)pyrimidin-2-yl]amino]-2-(prop-2-enoylamino)anilino]ethyl-dimethyl-ammonium
   71    74     0     0     0
SMALL
USER_CHARGES

@<TRIPOS>ATOM
      1 C1        -11.2397    8.2942    3.0775 C.3       1 <0>         0.2026
      2 N1        -10.3716    7.4871    3.9075 N.pl3     1 <0>        -0.4808
      3 C2         -9.7322    6.3538    3.4818 C.2       1 <0>         0.0646
      4 C3         -9.0005    5.8589    4.5366 C.2       1 <0>        -0.2532
      5 C4         -9.2027    6.7245    5.6479 C.ar      1 <0>        -0.0631
      6 C5         -8.7321    6.7433    6.9759 C.ar      1 <0>        -0.0915
      7 C6         -9.1424    7.7725    7.8310 C.ar      1 <0>        -0.1438
      8 C7        -10.0056    8.7705    7.3830 C.ar      1 <0>        -0.1137
      9 C8        -10.4853    8.7726    6.0700 C.ar      1 <0>        -0.1339
     10 C9        -10.0667    7.7375    5.2264 C.ar      1 <0>         0.0754
     11 C10        -8.2053    4.6694    4.4284 C.ar      1 <0>         0.5770
     12 N2         -8.0637    3.9524    5.5626 N.ar      1 <0>        -0.7414
     13 C11        -7.3151    2.8396    5.4416 C.ar      1 <0>         0.8662
     14 N3         -6.7109    2.3878    4.3261 N.ar      1 <0>        -0.7358
     15 C12        -6.8941    3.1527    3.2299 C.ar      1 <0>         0.4593
     16 C13        -7.6382    4.3147    3.2214 C.ar      1 <0>        -0.3841
     17 N4         -7.1454    2.0639    6.6092 N.pl3     1 <0>        -0.7312
     18 C14        -7.6128    2.2136    7.9282 C.ar      1 <0>         0.2198
     19 C15        -6.8701    1.7262    9.0036 C.ar      1 <0>         0.0004
     20 C16        -7.3450    1.8804   10.3061 C.ar      1 <0>        -0.1002
     21 C17        -8.5626    2.5218   10.5331 C.ar      1 <0>         0.0078
     22 C18        -9.3054    3.0091    9.4577 C.ar      1 <0>         0.1139
     23 C19        -8.8304    2.8550    8.1552 C.ar      1 <0>        -0.1806
     24 N5        -10.5273    3.6565    9.6615 N.am      1 <0>        -0.4754
     25 C20       -11.3860    4.1981    8.6974 C.2       1 <0>         0.6627
     26 O1        -11.2253    4.2064    7.4827 O.2       1 <0>        -0.5600
     27 C21       -12.5967    4.8065    9.3216 C.2       1 <0>        -0.2593
     28 C22       -13.5385    5.3771    8.5638 C.2       1 <0>        -0.1058
     29 N6         -9.0240    2.6667   11.8606 N.pl3     1 <0>        -0.7396
     30 C23        -9.8566    1.6454   12.4612 C.3       1 <0>         0.2210
     31 C24        -8.6577    3.8316   12.6392 C.3       1 <0>         0.2524
     32 C25        -7.3730    3.6110   13.4127 C.3       1 <0>         0.0450
     33 N7         -7.0029    4.7637   14.1884 N.4       1 <0>        -0.6729
     34 C26        -6.3474    5.7829   13.3541 C.3       1 <0>         0.0818
     35 C27        -6.1152    4.3969   15.3029 C.3       1 <0>         0.0818
     36 O2         -5.6781    1.0964    8.8026 O.3       1 <0>        -0.3487
     37 C28        -4.5083    1.9117    8.7953 C.3       1 <0>         0.1098
     38 H1        -11.2978    7.8541    2.0711 H         1 <0>         0.0542
     39 H2        -10.8358    9.3150    3.0085 H         1 <0>         0.0542
     40 H3        -12.2454    8.3270    3.5220 H         1 <0>         0.0542
     41 H4         -9.8536    5.9989    2.4662 H         1 <0>         0.1768
     42 H5         -8.0590    5.9728    7.3411 H         1 <0>         0.1348
     43 H6         -8.7828    7.7922    8.8564 H         1 <0>         0.1344
     44 H7        -10.3114    9.5603    8.0644 H         1 <0>         0.1353
     45 H8        -11.1571    9.5522    5.7266 H         1 <0>         0.1358
     46 H9         -6.4097    2.7934    2.3281 H         1 <0>         0.0349
     47 H10        -7.7593    4.8995    2.3179 H         1 <0>         0.1678
     48 H11        -6.5444    1.1432    6.5753 H         1 <0>         0.4693
     49 H12        -6.7620    1.4983   11.1409 H         1 <0>         0.1352
     50 H13        -9.4089    3.2354    7.3157 H         1 <0>         0.2119
     51 H14       -10.9166    3.7880   10.6819 H         1 <0>         0.3123
     52 H15       -12.7106    4.7827   10.4154 H         1 <0>         0.1258
     53 H16       -14.4274    5.8229    9.0340 H         1 <0>         0.1388
     54 H17       -13.4246    5.4009    7.4700 H         1 <0>         0.1388
     55 H18       -10.1108    1.9382   13.4906 H         1 <0>         0.0408
     56 H19        -9.3118    0.6899   12.4757 H         1 <0>         0.0408
     57 H20       -10.7796    1.5324   11.8735 H         1 <0>         0.0408
     58 H21        -8.5131    4.6908   11.9677 H         1 <0>         0.0544
     59 H22        -9.4587    4.0589   13.3581 H         1 <0>         0.0544
     60 H23        -7.5004    2.7621   14.1006 H         1 <0>         0.1056
     61 H24        -6.5547    3.3941   12.7103 H         1 <0>         0.1056
     62 H25        -6.0781    6.6487   13.9769 H         1 <0>         0.1054
     63 H26        -7.0359    6.1035   12.5583 H         1 <0>         0.1054
     64 H27        -5.4382    5.3584   12.9033 H         1 <0>         0.1054
     65 H28        -5.8520    5.2993   15.8742 H         1 <0>         0.1054
     66 H29        -5.1997    3.9345   14.9055 H         1 <0>         0.1054
     67 H30        -6.6303    3.6827   15.9622 H         1 <0>         0.1054
     68 H31        -3.6231    1.2814    8.6245 H         1 <0>         0.0463
     69 H32        -4.4123    2.4239    9.7640 H         1 <0>         0.0463
     70 H33        -4.5871    2.6588    7.9917 H         1 <0>         0.0463
     71 H34        -7.9460    5.1659   14.5868 H         1 <0>         0.4457
@<TRIPOS>BOND
     1    1    2 1
     2    1   38 1
     3    1   39 1
     4    1   40 1
     5    2   10 1
     6    2    3 1
     7    3    4 2
     8    3   41 1
     9    4    5 1
    10    4   11 1
    11    5   10 ar
    12    5    6 ar
    13    6    7 ar
    14    6   42 1
    15    7    8 ar
    16    7   43 1
    17    8    9 ar
    18    8   44 1
    19    9   10 ar
    20    9   45 1
    21   11   16 ar
    22   11   12 ar
    23   12   13 ar
    24   13   14 ar
    25   13   17 1
    26   14   15 ar
    27   15   16 ar
    28   15   46 1
    29   16   47 1
    30   17   18 1
    31   17   48 1
    32   18   23 ar
    33   18   19 ar
    34   19   20 ar
    35   19   36 1
    36   20   21 ar
    37   20   49 1
    38   21   22 ar
    39   21   29 1
    40   22   23 ar
    41   22   24 1
    42   23   50 1
    43   24   25 am
    44   24   51 1
    45   25   26 2
    46   25   27 1
    47   27   28 2
    48   27   52 1
    49   28   53 1
    50   28   54 1
    51   29   30 1
    52   29   31 1
    53   30   55 1
    54   30   56 1
    55   30   57 1
    56   31   32 1
    57   31   58 1
    58   31   59 1
    59   32   33 1
    60   32   60 1
    61   32   61 1
    62   33   34 1
    63   33   35 1
    64   33   71 1
    65   34   62 1
    66   34   63 1
    67   34   64 1
    68   35   65 1
    69   35   66 1
    70   35   67 1
    71   36   37 1
    72   37   68 1
    73   37   69 1
    74   37   70 1
@<TRIPOS>MOLECULE
~{N}-[2-[2-(dimethylamino)ethyl-methyl-amino]-4-methoxy-5-[[4-(1-methylindol-3-yl)pyrimidin-2-yl]amino]phenyl]prop-2-enamide
   70    73     0     0     0
SMALL
USER_CHARGES

@<TRIPOS>ATOM
      1 C1        -11.2397    8.2942    3.0775 C.3       1 <0>         0.2082
      2 N1        -10.3716    7.4871    3.9075 N.pl3     1 <0>        -0.4904
      3 C2         -9.7322    6.3538    3.4818 C.2       1 <0>         0.0617
      4 C3         -9.0005    5.8589    4.5366 C.2       1 <0>        -0.2376
      5 C4         -9.2027    6.7245    5.6479 C.ar      1 <0>        -0.0628
      6 C5         -8.7321    6.7433    6.9759 C.ar      1 <0>        -0.0876
      7 C6         -9.1424    7.7725    7.8310 C.ar      1 <0>        -0.1522
      8 C7        -10.0056    8.7705    7.3830 C.ar      1 <0>        -0.1170
      9 C8        -10.4853    8.7726    6.0700 C.ar      1 <0>        -0.1386
     10 C9        -10.0667    7.7375    5.2264 C.ar      1 <0>         0.0765
     11 C10        -8.2053    4.6694    4.4284 C.ar      1 <0>         0.5706
     12 N2         -8.0637    3.9524    5.5626 N.ar      1 <0>        -0.7523
     13 C11        -7.3151    2.8396    5.4416 C.ar      1 <0>         0.8794
     14 N3         -6.7109    2.3878    4.3261 N.ar      1 <0>        -0.7276
     15 C12        -6.8941    3.1527    3.2299 C.ar      1 <0>         0.4618
     16 C13        -7.6382    4.3147    3.2214 C.ar      1 <0>        -0.4065
     17 N4         -7.1454    2.0639    6.6092 N.pl3     1 <0>        -0.7308
     18 C14        -7.6128    2.2136    7.9282 C.ar      1 <0>         0.1857
     19 C15        -6.8701    1.7262    9.0036 C.ar      1 <0>         0.0084
     20 C16        -7.3450    1.8804   10.3061 C.ar      1 <0>        -0.1088
     21 C17        -8.5626    2.5218   10.5331 C.ar      1 <0>         0.0454
     22 C18        -9.3054    3.0091    9.4577 C.ar      1 <0>         0.1088
     23 C19        -8.8304    2.8550    8.1552 C.ar      1 <0>        -0.1694
     24 N5        -10.5273    3.6565    9.6615 N.am      1 <0>        -0.4594
     25 C20       -11.3860    4.1981    8.6974 C.2       1 <0>         0.6607
     26 O1        -11.2253    4.2064    7.4827 O.2       1 <0>        -0.5885
     27 C21       -12.5967    4.8065    9.3216 C.2       1 <0>        -0.2404
     28 C22       -13.5385    5.3771    8.5638 C.2       1 <0>        -0.1319
     29 N6         -9.0240    2.6667   11.8606 N.pl3     1 <0>        -0.7102
     30 C23        -9.8566    1.6454   12.4612 C.3       1 <0>         0.2005
     31 C24        -8.6577    3.8316   12.6392 C.3       1 <0>         0.2105
     32 C25        -7.3730    3.6110   13.4127 C.3       1 <0>         0.1398
     33 N7         -7.0029    4.7637   14.1884 N.3       1 <0>        -0.7456
     34 C26        -6.3474    5.7829   13.3541 C.3       1 <0>         0.1612
     35 C27        -6.1152    4.3969   15.3029 C.3       1 <0>         0.1612
     36 O2         -5.6781    1.0964    8.8026 O.3       1 <0>        -0.3488
     37 C28        -4.5083    1.9117    8.7953 C.3       1 <0>         0.1129
     38 H1        -11.2978    7.8541    2.0711 H         1 <0>         0.0514
     39 H2        -10.8358    9.3150    3.0085 H         1 <0>         0.0514
     40 H3        -12.2454    8.3270    3.5220 H         1 <0>         0.0514
     41 H4         -9.8536    5.9989    2.4662 H         1 <0>         0.1770
     42 H5         -8.0590    5.9728    7.3411 H         1 <0>         0.1380
     43 H6         -8.7828    7.7922    8.8564 H         1 <0>         0.1297
     44 H7        -10.3114    9.5603    8.0644 H         1 <0>         0.1297
     45 H8        -11.1571    9.5522    5.7266 H         1 <0>         0.1315
     46 H9         -6.4097    2.7934    2.3281 H         1 <0>         0.0298
     47 H10        -7.7593    4.8995    2.3179 H         1 <0>         0.1589
     48 H11        -6.5444    1.1432    6.5753 H         1 <0>         0.4661
     49 H12        -6.7620    1.4983   11.1409 H         1 <0>         0.1439
     50 H13        -9.4089    3.2354    7.3157 H         1 <0>         0.1989
     51 H14       -10.9166    3.7880   10.6819 H         1 <0>         0.3330
     52 H15       -12.7106    4.7827   10.4154 H         1 <0>         0.1312
     53 H16       -14.4274    5.8229    9.0340 H         1 <0>         0.1300
     54 H17       -13.4246    5.4009    7.4700 H         1 <0>         0.1300
     55 H18       -10.1108    1.9382   13.4906 H         1 <0>         0.0302
     56 H19        -9.3118    0.6899   12.4757 H         1 <0>         0.0302
     57 H20       -10.7796    1.5324   11.8735 H         1 <0>         0.0302
     58 H21        -8.5131    4.6908   11.9677 H         1 <0>         0.0544
     59 H22        -9.4587    4.0589   13.3581 H         1 <0>         0.0544
     60 H23        -7.5004    2.7621   14.1006 H         1 <0>         0.0349
     61 H24        -6.5547    3.3941   12.7103 H         1 <0>         0.0349
     62 H25        -6.0781    6.6487   13.9769 H         1 <0>         0.0304
     63 H26        -7.0359    6.1035   12.5583 H         1 <0>         0.0304
     64 H27        -5.4382    5.3584   12.9033 H         1 <0>         0.0304
     65 H28        -5.8520    5.2993   15.8742 H         1 <0>         0.0304
     66 H29        -5.1997    3.9345   14.9055 H         1 <0>         0.0304
     67 H30        -6.6303    3.6827   15.9622 H         1 <0>         0.0304
     68 H31        -3.6231    1.2814    8.6245 H         1 <0>         0.0398
     69 H32        -4.4123    2.4239    9.7640 H         1 <0>         0.0398
     70 H33        -4.5871    2.6588    7.9917 H         1 <0>         0.0398
@<TRIPOS>BOND
     1    1    2 1
     2    1   38 1
     3    1   39 1
     4    1   40 1
     5    2   10 1
     6    2    3 1
     7    3    4 2
     8    3   41 1
     9    4    5 1
    10    4   11 1
    11    5   10 ar
    12    5    6 ar
    13    6    7 ar
    14    6   42 1
    15    7    8 ar
    16    7   43 1
    17    8    9 ar
    18    8   44 1
    19    9   10 ar
    20    9   45 1
    21   11   16 ar
    22   11   12 ar
    23   12   13 ar
    24   13   14 ar
    25   13   17 1
    26   14   15 ar
    27   15   16 ar
    28   15   46 1
    29   16   47 1
    30   17   18 1
    31   17   48 1
    32   18   23 ar
    33   18   19 ar
    34   19   20 ar
    35   19   36 1
    36   20   21 ar
    37   20   49 1
    38   21   22 ar
    39   21   29 1
    40   22   23 ar
    41   22   24 1
    42   23   50 1
    43   24   25 am
    44   24   51 1
    45   25   26 2
    46   25   27 1
    47   27   28 2
    48   27   52 1
    49   28   53 1
    50   28   54 1
    51   29   30 1
    52   29   31 1
    53   30   55 1
    54   30   56 1
    55   30   57 1
    56   31   32 1
    57   31   58 1
    58   31   59 1
    59   32   33 1
    60   32   60 1
    61   32   61 1
    62   33   34 1
    63   33   35 1
    64   34   62 1
    65   34   63 1
    66   34   64 1
    67   35   65 1
    68   35   66 1
    69   35   67 1
    70   36   37 1
    71   37   68 1
    72   37   69 1
    73   37   70 1
@<TRIPOS>MOLECULE
(~{S})-2-(dimethylamino)ethyl-[5-methoxy-4-[[4-(1-methylindol-3-yl)pyrimidin-2-yl]amino]-2-(prop-2-enoylamino)phenyl]-methyl-ammonium
   71    74     0     0     0
SMALL
USER_CHARGES

@<TRIPOS>ATOM
      1 C1        -11.2397    8.2942    3.0775 C.3       1 <0>         0.1993
      2 N1        -10.3716    7.4871    3.9075 N.pl3     1 <0>        -0.4758
      3 C2         -9.7322    6.3538    3.4818 C.2       1 <0>         0.0714
      4 C3         -9.0005    5.8589    4.5366 C.2       1 <0>        -0.2666
      5 C4         -9.2027    6.7245    5.6479 C.ar      1 <0>        -0.0623
      6 C5         -8.7321    6.7433    6.9759 C.ar      1 <0>        -0.0949
      7 C6         -9.1424    7.7725    7.8310 C.ar      1 <0>        -0.1401
      8 C7        -10.0056    8.7705    7.3830 C.ar      1 <0>        -0.1124
      9 C8        -10.4853    8.7726    6.0700 C.ar      1 <0>        -0.1301
     10 C9        -10.0667    7.7375    5.2264 C.ar      1 <0>         0.0753
     11 C10        -8.2053    4.6694    4.4284 C.ar      1 <0>         0.5843
     12 N2         -8.0637    3.9524    5.5626 N.ar      1 <0>        -0.7288
     13 C11        -7.3151    2.8396    5.4416 C.ar      1 <0>         0.8566
     14 N3         -6.7109    2.3878    4.3261 N.ar      1 <0>        -0.7410
     15 C12        -6.8941    3.1527    3.2299 C.ar      1 <0>         0.4583
     16 C13        -7.6382    4.3147    3.2214 C.ar      1 <0>        -0.3703
     17 N4         -7.1454    2.0639    6.6092 N.pl3     1 <0>        -0.7219
     18 C14        -7.6128    2.2136    7.9282 C.ar      1 <0>         0.2672
     19 C15        -6.8701    1.7262    9.0036 C.ar      1 <0>         0.0111
     20 C16        -7.3450    1.8804   10.3061 C.ar      1 <0>        -0.0627
     21 C17        -8.5626    2.5218   10.5331 C.ar      1 <0>        -0.1761
     22 C18        -9.3054    3.0091    9.4577 C.ar      1 <0>         0.1574
     23 C19        -8.8304    2.8550    8.1552 C.ar      1 <0>        -0.1954
     24 N5        -10.5273    3.6565    9.6615 N.am      1 <0>        -0.4971
     25 C20       -11.3860    4.1981    8.6974 C.2       1 <0>         0.6769
     26 O1        -11.2253    4.2064    7.4827 O.2       1 <0>        -0.5313
     27 C21       -12.5967    4.8065    9.3216 C.2       1 <0>        -0.2718
     28 C22       -13.5385    5.3771    8.5638 C.2       1 <0>        -0.0824
     29 N6         -9.0240    2.6667   11.8606 N.4       1 <0>        -0.5291
     30 C23        -9.8566    1.6454   12.4612 C.3       1 <0>         0.0800
     31 C24        -8.6577    3.8316   12.6392 C.3       1 <0>         0.1020
     32 C25        -7.3730    3.6110   13.4127 C.3       1 <0>         0.1561
     33 N7         -7.0029    4.7637   14.1884 N.3       1 <0>        -0.7319
     34 C26        -6.3474    5.7829   13.3541 C.3       1 <0>         0.1465
     35 C27        -6.1152    4.3969   15.3029 C.3       1 <0>         0.1465
     36 O2         -5.6781    1.0964    8.8026 O.3       1 <0>        -0.3343
     37 C28        -4.5083    1.9117    8.7953 C.3       1 <0>         0.1062
     38 H1        -11.2978    7.8541    2.0711 H         1 <0>         0.0569
     39 H2        -10.8358    9.3150    3.0085 H         1 <0>         0.0569
     40 H3        -12.2454    8.3270    3.5220 H         1 <0>         0.0569
     41 H4         -9.8536    5.9989    2.4662 H         1 <0>         0.1781
     42 H5         -8.0590    5.9728    7.3411 H         1 <0>         0.1332
     43 H6         -8.7828    7.7922    8.8564 H         1 <0>         0.1359
     44 H7        -10.3114    9.5603    8.0644 H         1 <0>         0.1380
     45 H8        -11.1571    9.5522    5.7266 H         1 <0>         0.1386
     46 H9         -6.4097    2.7934    2.3281 H         1 <0>         0.0374
     47 H10        -7.7593    4.8995    2.3179 H         1 <0>         0.1738
     48 H11        -6.5444    1.1432    6.5753 H         1 <0>         0.4818
     49 H12        -6.7620    1.4983   11.1409 H         1 <0>         0.1576
     50 H13        -9.4089    3.2354    7.3157 H         1 <0>         0.2239
     51 H14       -10.9166    3.7880   10.6819 H         1 <0>         0.2900
     52 H15       -12.7106    4.7827   10.4154 H         1 <0>         0.1279
     53 H16       -14.4274    5.8229    9.0340 H         1 <0>         0.1452
     54 H17       -13.4246    5.4009    7.4700 H         1 <0>         0.1452
     55 H18       -10.1108    1.9382   13.4906 H         1 <0>         0.0993
     56 H19        -9.3118    0.6899   12.4757 H         1 <0>         0.0993
     57 H20       -10.7796    1.5324   11.8735 H         1 <0>         0.0993
     58 H21        -8.5131    4.6908   11.9677 H         1 <0>         0.1145
     59 H22        -9.4587    4.0589   13.3581 H         1 <0>         0.1145
     60 H23        -7.5004    2.7621   14.1006 H         1 <0>         0.0437
     61 H24        -6.5547    3.3941   12.7103 H         1 <0>         0.0437
     62 H25        -6.0781    6.6487   13.9769 H         1 <0>         0.0472
     63 H26        -7.0359    6.1035   12.5583 H         1 <0>         0.0472
     64 H27        -5.4382    5.3584   12.9033 H         1 <0>         0.0472
     65 H28        -5.8520    5.2993   15.8742 H         1 <0>         0.0472
     66 H29        -5.1997    3.9345   14.9055 H         1 <0>         0.0472
     67 H30        -6.6303    3.6827   15.9622 H         1 <0>         0.0472
     68 H31        -3.6231    1.2814    8.6245 H         1 <0>         0.0515
     69 H32        -4.4123    2.4239    9.7640 H         1 <0>         0.0515
     70 H33        -4.5871    2.6588    7.9917 H         1 <0>         0.0515
     71 H34        -9.9228    3.1826   11.4919 H         1 <0>         0.4321
@<TRIPOS>BOND
     1    1    2 1
     2    1   38 1
     3    1   39 1
     4    1   40 1
     5    2   10 1
     6    2    3 1
     7    3    4 2
     8    3   41 1
     9    4    5 1
    10    4   11 1
    11    5   10 ar
    12    5    6 ar
    13    6    7 ar
    14    6   42 1
    15    7    8 ar
    16    7   43 1
    17    8    9 ar
    18    8   44 1
    19    9   10 ar
    20    9   45 1
    21   11   16 ar
    22   11   12 ar
    23   12   13 ar
    24   13   14 ar
    25   13   17 1
    26   14   15 ar
    27   15   16 ar
    28   15   46 1
    29   16   47 1
    30   17   18 1
    31   17   48 1
    32   18   23 ar
    33   18   19 ar
    34   19   20 ar
    35   19   36 1
    36   20   21 ar
    37   20   49 1
    38   21   22 ar
    39   21   29 1
    40   22   23 ar
    41   22   24 1
    42   23   50 1
    43   24   25 am
    44   24   51 1
    45   25   26 2
    46   25   27 1
    47   27   28 2
    48   27   52 1
    49   28   53 1
    50   28   54 1
    51   29   30 1
    52   29   31 1
    53   29   71 1
    54   30   55 1
    55   30   56 1
    56   30   57 1
    57   31   32 1
    58   31   58 1
    59   31   59 1
    60   32   33 1
    61   32   60 1
    62   32   61 1
    63   33   34 1
    64   33   35 1
    65   34   62 1
    66   34   63 1
    67   34   64 1
    68   35   65 1
    69   35   66 1
    70   35   67 1
    71   36   37 1
    72   37   68 1
    73   37   69 1
    74   37   70 1
@<TRIPOS>MOLECULE
[2-[2-(dimethylammonio)ethyl-methyl-amino]-4-methoxy-5-[[4-(1-methylindol-3-yl)pyrimidin-2-yl]amino]phenyl]-(1-oxoniumylideneallyl)azanide
   71    74     0     0     0
SMALL
USER_CHARGES

@<TRIPOS>ATOM
      1 C1        -11.2397    8.2942    3.0775 C.3       1 <0>         0.1964
      2 N1        -10.3716    7.4871    3.9075 N.pl3     1 <0>        -0.4712
      3 C2         -9.7322    6.3538    3.4818 C.2       1 <0>         0.0517
      4 C3         -9.0005    5.8589    4.5366 C.2       1 <0>        -0.2493
      5 C4         -9.2027    6.7245    5.6479 C.ar      1 <0>        -0.0505
      6 C5         -8.7321    6.7433    6.9759 C.ar      1 <0>        -0.0762
      7 C6         -9.1424    7.7725    7.8310 C.ar      1 <0>        -0.1509
      8 C7        -10.0056    8.7705    7.3830 C.ar      1 <0>        -0.1112
      9 C8        -10.4853    8.7726    6.0700 C.ar      1 <0>        -0.1353
     10 C9        -10.0667    7.7375    5.2264 C.ar      1 <0>         0.0726
     11 C10        -8.2053    4.6694    4.4284 C.ar      1 <0>         0.5890
     12 N2         -8.0637    3.9524    5.5626 N.ar      1 <0>        -0.7428
     13 C11        -7.3151    2.8396    5.4416 C.ar      1 <0>         0.8731
     14 N3         -6.7109    2.3878    4.3261 N.ar      1 <0>        -0.7560
     15 C12        -6.8941    3.1527    3.2299 C.ar      1 <0>         0.4630
     16 C13        -7.6382    4.3147    3.2214 C.ar      1 <0>        -0.4060
     17 N4         -7.1454    2.0639    6.6092 N.pl3     1 <0>        -0.7279
     18 C14        -7.6128    2.2136    7.9282 C.ar      1 <0>         0.1964
     19 C15        -6.8701    1.7262    9.0036 C.ar      1 <0>         0.0294
     20 C16        -7.3450    1.8804   10.3061 C.ar      1 <0>        -0.1187
     21 C17        -8.5626    2.5218   10.5331 C.ar      1 <0>         0.0988
     22 C18        -9.3054    3.0091    9.4577 C.ar      1 <0>         0.0257
     23 C19        -8.8304    2.8550    8.1552 C.ar      1 <0>        -0.2051
     24 N5        -10.5273    3.6565    9.6615 N.2       1 <0>        -0.3166
     25 C20       -11.3860    4.1981    8.6974 C.2       1 <0>         0.5238
     26 O1        -11.2253    4.2064    7.4827 O.3       1 <0>        -0.7280
     27 C21       -12.5967    4.8065    9.3216 C.2       1 <0>        -0.1729
     28 C22       -13.5385    5.3771    8.5638 C.2       1 <0>        -0.1328
     29 N6         -9.0240    2.6667   11.8606 N.pl3     1 <0>        -0.7123
     30 C23        -9.8566    1.6454   12.4612 C.3       1 <0>         0.2082
     31 C24        -8.6577    3.8316   12.6392 C.3       1 <0>         0.2366
     32 C25        -7.3730    3.6110   13.4127 C.3       1 <0>         0.0593
     33 N7         -7.0029    4.7637   14.1884 N.4       1 <0>        -0.6736
     34 C26        -6.3474    5.7829   13.3541 C.3       1 <0>         0.0823
     35 C27        -6.1152    4.3969   15.3029 C.3       1 <0>         0.0823
     36 O2         -5.6781    1.0964    8.8026 O.3       1 <0>        -0.3497
     37 C28        -4.5083    1.9117    8.7953 C.3       1 <0>         0.1111
     38 H1        -11.2978    7.8541    2.0711 H         1 <0>         0.0556
     39 H2        -10.8358    9.3150    3.0085 H         1 <0>         0.0556
     40 H3        -12.2454    8.3270    3.5220 H         1 <0>         0.0556
     41 H4         -9.8536    5.9989    2.4662 H         1 <0>         0.1735
     42 H5         -8.0590    5.9728    7.3411 H         1 <0>         0.1433
     43 H6         -8.7828    7.7922    8.8564 H         1 <0>         0.1316
     44 H7        -10.3114    9.5603    8.0644 H         1 <0>         0.1351
     45 H8        -11.1571    9.5522    5.7266 H         1 <0>         0.1367
     46 H9         -6.4097    2.7934    2.3281 H         1 <0>         0.0301
     47 H10        -7.7593    4.8995    2.3179 H         1 <0>         0.1586
     48 H11        -6.5444    1.1432    6.5753 H         1 <0>         0.4702
     49 H12        -6.7620    1.4983   11.1409 H         1 <0>         0.1318
     50 H13        -9.4089    3.2354    7.3157 H         1 <0>         0.1771
     51 H14       -12.7106    4.7827   10.4154 H         1 <0>         0.1544
     52 H15       -14.4274    5.8229    9.0340 H         1 <0>         0.1343
     53 H16       -13.4246    5.4009    7.4700 H         1 <0>         0.1343
     54 H17       -10.1108    1.9382   13.4906 H         1 <0>         0.0462
     55 H18        -9.3118    0.6899   12.4757 H         1 <0>         0.0462
     56 H19       -10.7796    1.5324   11.8735 H         1 <0>         0.0462
     57 H20        -8.5131    4.6908   11.9677 H         1 <0>         0.0522
     58 H21        -9.4587    4.0589   13.3581 H         1 <0>         0.0522
     59 H22        -7.5004    2.7621   14.1006 H         1 <0>         0.1053
     60 H23        -6.5547    3.3941   12.7103 H         1 <0>         0.1053
     61 H24        -6.0781    6.6487   13.9769 H         1 <0>         0.1048
     62 H25        -7.0359    6.1035   12.5583 H         1 <0>         0.1048
     63 H26        -5.4382    5.3584   12.9033 H         1 <0>         0.1048
     64 H27        -5.8520    5.2993   15.8742 H         1 <0>         0.1048
     65 H28        -5.1997    3.9345   14.9055 H         1 <0>         0.1048
     66 H29        -6.6303    3.6827   15.9622 H         1 <0>         0.1048
     67 H30        -3.6231    1.2814    8.6245 H         1 <0>         0.0470
     68 H31        -4.4123    2.4239    9.7640 H         1 <0>         0.0470
     69 H32        -4.5871    2.6588    7.9917 H         1 <0>         0.0470
     70 H33        -7.9460    5.1659   14.5868 H         1 <0>         0.4502
     71 H34       -11.9817    4.6680    6.8310 H         1 <0>         0.4358
@<TRIPOS>BOND
     1    1    2 1
     2    1   38 1
     3    1   39 1
     4    1   40 1
     5    2   10 1
     6    2    3 1
     7    3    4 2
     8    3   41 1
     9    4    5 1
    10    4   11 1
    11    5   10 ar
    12    5    6 ar
    13    6    7 ar
    14    6   42 1
    15    7    8 ar
    16    7   43 1
    17    8    9 ar
    18    8   44 1
    19    9   10 ar
    20    9   45 1
    21   11   16 ar
    22   11   12 ar
    23   12   13 ar
    24   13   14 ar
    25   13   17 1
    26   14   15 ar
    27   15   16 ar
    28   15   46 1
    29   16   47 1
    30   17   18 1
    31   17   48 1
    32   18   23 ar
    33   18   19 ar
    34   19   20 ar
    35   19   36 1
    36   20   21 ar
    37   20   49 1
    38   21   22 ar
    39   21   29 1
    40   22   23 ar
    41   22   24 1
    42   23   50 1
    43   24   25 1
    44   25   26 2
    45   25   27 1
    46   26   71 1
    47   27   28 2
    48   27   51 1
    49   28   52 1
    50   28   53 1
    51   29   30 1
    52   29   31 1
    53   30   54 1
    54   30   55 1
    55   30   56 1
    56   31   32 1
    57   31   57 1
    58   31   58 1
    59   32   33 1
    60   32   59 1
    61   32   60 1
    62   33   34 1
    63   33   35 1
    64   33   70 1
    65   34   61 1
    66   34   62 1
    67   34   63 1
    68   35   64 1
    69   35   65 1
    70   35   66 1
    71   36   37 1
    72   37   67 1
    73   37   68 1
    74   37   69 1
@<TRIPOS>MOLECULE
[2-[(~{S})-2-(dimethylamino)ethyl-methyl-ammonio]-4-methoxy-5-[[4-(1-methylindol-3-yl)pyrimidin-2-yl]amino]phenyl]-(1-oxoniumylideneallyl)azanide
   71    74     0     0     0
SMALL
USER_CHARGES

@<TRIPOS>ATOM
      1 C1        -11.2397    8.2942    3.0775 C.3       1 <0>         0.1943
      2 N1        -10.3716    7.4871    3.9075 N.pl3     1 <0>        -0.4658
      3 C2         -9.7322    6.3538    3.4818 C.2       1 <0>         0.0590
      4 C3         -9.0005    5.8589    4.5366 C.2       1 <0>        -0.2637
      5 C4         -9.2027    6.7245    5.6479 C.ar      1 <0>        -0.0494
      6 C5         -8.7321    6.7433    6.9759 C.ar      1 <0>        -0.0807
      7 C6         -9.1424    7.7725    7.8310 C.ar      1 <0>        -0.1463
      8 C7        -10.0056    8.7705    7.3830 C.ar      1 <0>        -0.1101
      9 C8        -10.4853    8.7726    6.0700 C.ar      1 <0>        -0.1301
     10 C9        -10.0667    7.7375    5.2264 C.ar      1 <0>         0.0704
     11 C10        -8.2053    4.6694    4.4284 C.ar      1 <0>         0.5965
     12 N2         -8.0637    3.9524    5.5626 N.ar      1 <0>        -0.7297
     13 C11        -7.3151    2.8396    5.4416 C.ar      1 <0>         0.8652
     14 N3         -6.7109    2.3878    4.3261 N.ar      1 <0>        -0.7567
     15 C12        -6.8941    3.1527    3.2299 C.ar      1 <0>         0.4609
     16 C13        -7.6382    4.3147    3.2214 C.ar      1 <0>        -0.3927
     17 N4         -7.1454    2.0639    6.6092 N.pl3     1 <0>        -0.7288
     18 C14        -7.6128    2.2136    7.9282 C.ar      1 <0>         0.2565
     19 C15        -6.8701    1.7262    9.0036 C.ar      1 <0>         0.0243
     20 C16        -7.3450    1.8804   10.3061 C.ar      1 <0>        -0.0723
     21 C17        -8.5626    2.5218   10.5331 C.ar      1 <0>        -0.1086
     22 C18        -9.3054    3.0091    9.4577 C.ar      1 <0>         0.0805
     23 C19        -8.8304    2.8550    8.1552 C.ar      1 <0>        -0.2309
     24 N5        -10.5273    3.6565    9.6615 N.2       1 <0>        -0.3793
     25 C20       -11.3860    4.1981    8.6974 C.2       1 <0>         0.5710
     26 O1        -11.2253    4.2064    7.4827 O.3       1 <0>        -0.7137
     27 C21       -12.5967    4.8065    9.3216 C.2       1 <0>        -0.1925
     28 C22       -13.5385    5.3771    8.5638 C.2       1 <0>        -0.1046
     29 N6         -9.0240    2.6667   11.8606 N.4       1 <0>        -0.5269
     30 C23        -9.8566    1.6454   12.4612 C.3       1 <0>         0.0918
     31 C24        -8.6577    3.8316   12.6392 C.3       1 <0>         0.0974
     32 C25        -7.3730    3.6110   13.4127 C.3       1 <0>         0.1570
     33 N7         -7.0029    4.7637   14.1884 N.3       1 <0>        -0.7362
     34 C26        -6.3474    5.7829   13.3541 C.3       1 <0>         0.1487
     35 C27        -6.1152    4.3969   15.3029 C.3       1 <0>         0.1487
     36 O2         -5.6781    1.0964    8.8026 O.3       1 <0>        -0.3380
     37 C28        -4.5083    1.9117    8.7953 C.3       1 <0>         0.1065
     38 H1        -11.2978    7.8541    2.0711 H         1 <0>         0.0584
     39 H2        -10.8358    9.3150    3.0085 H         1 <0>         0.0584
     40 H3        -12.2454    8.3270    3.5220 H         1 <0>         0.0584
     41 H4         -9.8536    5.9989    2.4662 H         1 <0>         0.1744
     42 H5         -8.0590    5.9728    7.3411 H         1 <0>         0.1434
     43 H6         -8.7828    7.7922    8.8564 H         1 <0>         0.1344
     44 H7        -10.3114    9.5603    8.0644 H         1 <0>         0.1385
     45 H8        -11.1571    9.5522    5.7266 H         1 <0>         0.1394
     46 H9         -6.4097    2.7934    2.3281 H         1 <0>         0.0340
     47 H10        -7.7593    4.8995    2.3179 H         1 <0>         0.1639
     48 H11        -6.5444    1.1432    6.5753 H         1 <0>         0.4853
     49 H12        -6.7620    1.4983   11.1409 H         1 <0>         0.1631
     50 H13        -9.4089    3.2354    7.3157 H         1 <0>         0.1845
     51 H14       -12.7106    4.7827   10.4154 H         1 <0>         0.1634
     52 H15       -14.4274    5.8229    9.0340 H         1 <0>         0.1421
     53 H16       -13.4246    5.4009    7.4700 H         1 <0>         0.1421
     54 H17       -10.1108    1.9382   13.4906 H         1 <0>         0.0963
     55 H18        -9.3118    0.6899   12.4757 H         1 <0>         0.0963
     56 H19       -10.7796    1.5324   11.8735 H         1 <0>         0.0963
     57 H20        -8.5131    4.6908   11.9677 H         1 <0>         0.1086
     58 H21        -9.4587    4.0589   13.3581 H         1 <0>         0.1086
     59 H22        -7.5004    2.7621   14.1006 H         1 <0>         0.0477
     60 H23        -6.5547    3.3941   12.7103 H         1 <0>         0.0477
     61 H24        -6.0781    6.6487   13.9769 H         1 <0>         0.0458
     62 H25        -7.0359    6.1035   12.5583 H         1 <0>         0.0458
     63 H26        -5.4382    5.3584   12.9033 H         1 <0>         0.0458
     64 H27        -5.8520    5.2993   15.8742 H         1 <0>         0.0458
     65 H28        -5.1997    3.9345   14.9055 H         1 <0>         0.0458
     66 H29        -6.6303    3.6827   15.9622 H         1 <0>         0.0458
     67 H30        -3.6231    1.2814    8.6245 H         1 <0>         0.0537
     68 H31        -4.4123    2.4239    9.7640 H         1 <0>         0.0537
     69 H32        -4.5871    2.6588    7.9917 H         1 <0>         0.0537
     70 H33       -11.9817    4.6680    6.8310 H         1 <0>         0.4428
     71 H34        -9.9228    3.1826   11.4919 H         1 <0>         0.4639
@<TRIPOS>BOND
     1    1    2 1
     2    1   38 1
     3    1   39 1
     4    1   40 1
     5    2   10 1
     6    2    3 1
     7    3    4 2
     8    3   41 1
     9    4    5 1
    10    4   11 1
    11    5   10 ar
    12    5    6 ar
    13    6    7 ar
    14    6   42 1
    15    7    8 ar
    16    7   43 1
    17    8    9 ar
    18    8   44 1
    19    9   10 ar
    20    9   45 1
    21   11   16 ar
    22   11   12 ar
    23   12   13 ar
    24   13   14 ar
    25   13   17 1
    26   14   15 ar
    27   15   16 ar
    28   15   46 1
    29   16   47 1
    30   17   18 1
    31   17   48 1
    32   18   23 ar
    33   18   19 ar
    34   19   20 ar
    35   19   36 1
    36   20   21 ar
    37   20   49 1
    38   21   22 ar
    39   21   29 1
    40   22   23 ar
    41   22   24 1
    42   23   50 1
    43   24   25 1
    44   25   26 2
    45   25   27 1
    46   26   70 1
    47   27   28 2
    48   27   51 1
    49   28   52 1
    50   28   53 1
    51   29   30 1
    52   29   31 1
    53   29   71 1
    54   30   54 1
    55   30   55 1
    56   30   56 1
    57   31   32 1
    58   31   57 1
    59   31   58 1
    60   32   33 1
    61   32   59 1
    62   32   60 1
    63   33   34 1
    64   33   35 1
    65   34   61 1
    66   34   62 1
    67   34   63 1
    68   35   64 1
    69   35   65 1
    70   35   66 1
    71   36   37 1
    72   37   67 1
    73   37   68 1
    74   37   69 1
@<TRIPOS>MOLECULE
2-[5-methoxy-~{N}-methyl-4-[[4-(1-methylindol-3-yl)pyrimidin-2-yl]amino]-2-(1-oxoniumylideneallylamino)anilino]ethyl-dimethyl-ammonium
   72    75     0     0     0
SMALL
USER_CHARGES

@<TRIPOS>ATOM
      1 C1        -11.2397    8.2942    3.0775 C.3       1 <0>         0.1951
      2 N1        -10.3716    7.4871    3.9075 N.pl3     1 <0>        -0.4650
      3 C2         -9.7322    6.3538    3.4818 C.2       1 <0>         0.0965
      4 C3         -9.0005    5.8589    4.5366 C.2       1 <0>        -0.2883
      5 C4         -9.2027    6.7245    5.6479 C.ar      1 <0>        -0.0523
      6 C5         -8.7321    6.7433    6.9759 C.ar      1 <0>        -0.1055
      7 C6         -9.1424    7.7725    7.8310 C.ar      1 <0>        -0.1285
      8 C7        -10.0056    8.7705    7.3830 C.ar      1 <0>        -0.1107
      9 C8        -10.4853    8.7726    6.0700 C.ar      1 <0>        -0.1186
     10 C9        -10.0667    7.7375    5.2264 C.ar      1 <0>         0.0677
     11 C10        -8.2053    4.6694    4.4284 C.ar      1 <0>         0.6116
     12 N2         -8.0637    3.9524    5.5626 N.ar      1 <0>        -0.7435
     13 C11        -7.3151    2.8396    5.4416 C.ar      1 <0>         0.8593
     14 N3         -6.7109    2.3878    4.3261 N.ar      1 <0>        -0.7796
     15 C12        -6.8941    3.1527    3.2299 C.ar      1 <0>         0.4485
     16 C13        -7.6382    4.3147    3.2214 C.ar      1 <0>        -0.3706
     17 N4         -7.1454    2.0639    6.6092 N.pl3     1 <0>        -0.7107
     18 C14        -7.6128    2.2136    7.9282 C.ar      1 <0>         0.2214
     19 C15        -6.8701    1.7262    9.0036 C.ar      1 <0>         0.0587
     20 C16        -7.3450    1.8804   10.3061 C.ar      1 <0>        -0.1176
     21 C17        -8.5626    2.5218   10.5331 C.ar      1 <0>         0.0566
     22 C18        -9.3054    3.0091    9.4577 C.ar      1 <0>         0.0121
     23 C19        -8.8304    2.8550    8.1552 C.ar      1 <0>        -0.1329
     24 N5        -10.5273    3.6565    9.6615 N.am      1 <0>        -0.2781
     25 C20       -11.3860    4.1981    8.6974 C.2       1 <0>         0.6377
     26 O1        -11.2253    4.2064    7.4827 O.3       1 <0>        -0.6196
     27 C21       -12.5967    4.8065    9.3216 C.2       1 <0>        -0.2935
     28 C22       -13.5385    5.3771    8.5638 C.2       1 <0>        -0.0408
     29 N6         -9.0240    2.6667   11.8606 N.pl3     1 <0>        -0.7063
     30 C23        -9.8566    1.6454   12.4612 C.3       1 <0>         0.1838
     31 C24        -8.6577    3.8316   12.6392 C.3       1 <0>         0.2030
     32 C25        -7.3730    3.6110   13.4127 C.3       1 <0>         0.0636
     33 N7         -7.0029    4.7637   14.1884 N.4       1 <0>        -0.6751
     34 C26        -6.3474    5.7829   13.3541 C.3       1 <0>         0.0800
     35 C27        -6.1152    4.3969   15.3029 C.3       1 <0>         0.0800
     36 O2         -5.6781    1.0964    8.8026 O.3       1 <0>        -0.3350
     37 C28        -4.5083    1.9117    8.7953 C.3       1 <0>         0.1066
     38 H1        -11.2978    7.8541    2.0711 H         1 <0>         0.0629
     39 H2        -10.8358    9.3150    3.0085 H         1 <0>         0.0629
     40 H3        -12.2454    8.3270    3.5220 H         1 <0>         0.0629
     41 H4         -9.8536    5.9989    2.4662 H         1 <0>         0.1803
     42 H5         -8.0590    5.9728    7.3411 H         1 <0>         0.1282
     43 H6         -8.7828    7.7922    8.8564 H         1 <0>         0.1401
     44 H7        -10.3114    9.5603    8.0644 H         1 <0>         0.1458
     45 H8        -11.1571    9.5522    5.7266 H         1 <0>         0.1446
     46 H9         -6.4097    2.7934    2.3281 H         1 <0>         0.0237
     47 H10        -7.7593    4.8995    2.3179 H         1 <0>         0.1762
     48 H11        -6.5444    1.1432    6.5753 H         1 <0>         0.4732
     49 H12        -6.7620    1.4983   11.1409 H         1 <0>         0.1471
     50 H13        -9.4089    3.2354    7.3157 H         1 <0>         0.1987
     51 H14       -10.9166    3.7880   10.6819 H         1 <0>         0.3717
     52 H15       -12.7106    4.7827   10.4154 H         1 <0>         0.1773
     53 H16       -14.4274    5.8229    9.0340 H         1 <0>         0.1628
     54 H17       -13.4246    5.4009    7.4700 H         1 <0>         0.1628
     55 H18       -10.1108    1.9382   13.4906 H         1 <0>         0.0511
     56 H19        -9.3118    0.6899   12.4757 H         1 <0>         0.0511
     57 H20       -10.7796    1.5324   11.8735 H         1 <0>         0.0511
     58 H21        -8.5131    4.6908   11.9677 H         1 <0>         0.0642
     59 H22        -9.4587    4.0589   13.3581 H         1 <0>         0.0642
     60 H23        -7.5004    2.7621   14.1006 H         1 <0>         0.1100
     61 H24        -6.5547    3.3941   12.7103 H         1 <0>         0.1100
     62 H25        -6.0781    6.6487   13.9769 H         1 <0>         0.1108
     63 H26        -7.0359    6.1035   12.5583 H         1 <0>         0.1108
     64 H27        -5.4382    5.3584   12.9033 H         1 <0>         0.1108
     65 H28        -5.8520    5.2993   15.8742 H         1 <0>         0.1108
     66 H29        -5.1997    3.9345   14.9055 H         1 <0>         0.1108
     67 H30        -6.6303    3.6827   15.9622 H         1 <0>         0.1108
     68 H31        -3.6231    1.2814    8.6245 H         1 <0>         0.0545
     69 H32        -4.4123    2.4239    9.7640 H         1 <0>         0.0545
     70 H33        -4.5871    2.6588    7.9917 H         1 <0>         0.0545
     71 H34        -7.9460    5.1659   14.5868 H         1 <0>         0.4515
     72 H35       -11.9817    4.6680    6.8310 H         1 <0>         0.4870
@<TRIPOS>BOND
     1    1    2 1
     2    1   38 1
     3    1   39 1
     4    1   40 1
     5    2   10 1
     6    2    3 1
     7    3    4 2
     8    3   41 1
     9    4    5 1
    10    4   11 1
    11    5   10 ar
    12    5    6 ar
    13    6    7 ar
    14    6   42 1
    15    7    8 ar
    16    7   43 1
    17    8    9 ar
    18    8   44 1
    19    9   10 ar
    20    9   45 1
    21   11   16 ar
    22   11   12 ar
    23   12   13 ar
    24   13   14 ar
    25   13   17 1
    26   14   15 ar
    27   15   16 ar
    28   15   46 1
    29   16   47 1
    30   17   18 1
    31   17   48 1
    32   18   23 ar
    33   18   19 ar
    34   19   20 ar
    35   19   36 1
    36   20   21 ar
    37   20   49 1
    38   21   22 ar
    39   21   29 1
    40   22   23 ar
    41   22   24 1
    42   23   50 1
    43   24   25 am
    44   24   51 1
    45   25   26 2
    46   25   27 1
    47   26   72 1
    48   27   28 2
    49   27   52 1
    50   28   53 1
    51   28   54 1
    52   29   30 1
    53   29   31 1
    54   30   55 1
    55   30   56 1
    56   30   57 1
    57   31   32 1
    58   31   58 1
    59   31   59 1
    60   32   33 1
    61   32   60 1
    62   32   61 1
    63   33   34 1
    64   33   35 1
    65   33   71 1
    66   34   62 1
    67   34   63 1
    68   34   64 1
    69   35   65 1
    70   35   66 1
    71   35   67 1
    72   36   37 1
    73   37   68 1
    74   37   69 1
    75   37   70 1
@<TRIPOS>MOLECULE
(~{S})-2-(dimethylammonio)ethyl-[5-methoxy-4-[[4-(1-methylindol-3-yl)pyrimidin-2-yl]amino]-2-(prop-2-enoylamino)phenyl]-methyl-ammonium
   72    75     0     0     0
SMALL
USER_CHARGES

@<TRIPOS>ATOM
      1 C1        -11.2397    8.2942    3.0775 C.3       1 <0>         0.1902
      2 N1        -10.3716    7.4871    3.9075 N.pl3     1 <0>        -0.4597
      3 C2         -9.7322    6.3538    3.4818 C.2       1 <0>         0.0691
      4 C3         -9.0005    5.8589    4.5366 C.2       1 <0>        -0.2753
      5 C4         -9.2027    6.7245    5.6479 C.ar      1 <0>        -0.0485
      6 C5         -8.7321    6.7433    6.9759 C.ar      1 <0>        -0.0890
      7 C6         -9.1424    7.7725    7.8310 C.ar      1 <0>        -0.1429
      8 C7        -10.0056    8.7705    7.3830 C.ar      1 <0>        -0.1085
      9 C8        -10.4853    8.7726    6.0700 C.ar      1 <0>        -0.1237
     10 C9        -10.0667    7.7375    5.2264 C.ar      1 <0>         0.0702
     11 C10        -8.2053    4.6694    4.4284 C.ar      1 <0>         0.5906
     12 N2         -8.0637    3.9524    5.5626 N.ar      1 <0>        -0.7110
     13 C11        -7.3151    2.8396    5.4416 C.ar      1 <0>         0.8287
     14 N3         -6.7109    2.3878    4.3261 N.ar      1 <0>        -0.7072
     15 C12        -6.8941    3.1527    3.2299 C.ar      1 <0>         0.4497
     16 C13        -7.6382    4.3147    3.2214 C.ar      1 <0>        -0.3672
     17 N4         -7.1454    2.0639    6.6092 N.pl3     1 <0>        -0.7022
     18 C14        -7.6128    2.2136    7.9282 C.ar      1 <0>         0.3029
     19 C15        -6.8701    1.7262    9.0036 C.ar      1 <0>         0.0554
     20 C16        -7.3450    1.8804   10.3061 C.ar      1 <0>        -0.0830
     21 C17        -8.5626    2.5218   10.5331 C.ar      1 <0>        -0.2428
     22 C18        -9.3054    3.0091    9.4577 C.ar      1 <0>         0.1927
     23 C19        -8.8304    2.8550    8.1552 C.ar      1 <0>        -0.2589
     24 N5        -10.5273    3.6565    9.6615 N.am      1 <0>        -0.5043
     25 C20       -11.3860    4.1981    8.6974 C.2       1 <0>         0.6836
     26 O1        -11.2253    4.2064    7.4827 O.2       1 <0>        -0.5271
     27 C21       -12.5967    4.8065    9.3216 C.2       1 <0>        -0.2850
     28 C22       -13.5385    5.3771    8.5638 C.2       1 <0>        -0.0579
     29 N6         -9.0240    2.6667   11.8606 N.4       1 <0>        -0.5037
     30 C23        -9.8566    1.6454   12.4612 C.3       1 <0>         0.0758
     31 C24        -8.6577    3.8316   12.6392 C.3       1 <0>         0.0830
     32 C25        -7.3730    3.6110   13.4127 C.3       1 <0>         0.0759
     33 N7         -7.0029    4.7637   14.1884 N.4       1 <0>        -0.6747
     34 C26        -6.3474    5.7829   13.3541 C.3       1 <0>         0.0757
     35 C27        -6.1152    4.3969   15.3029 C.3       1 <0>         0.0757
     36 O2         -5.6781    1.0964    8.8026 O.3       1 <0>        -0.3161
     37 C28        -4.5083    1.9117    8.7953 C.3       1 <0>         0.1063
     38 H1        -11.2978    7.8541    2.0711 H         1 <0>         0.0632
     39 H2        -10.8358    9.3150    3.0085 H         1 <0>         0.0632
     40 H3        -12.2454    8.3270    3.5220 H         1 <0>         0.0632
     41 H4         -9.8536    5.9989    2.4662 H         1 <0>         0.1761
     42 H5         -8.0590    5.9728    7.3411 H         1 <0>         0.1356
     43 H6         -8.7828    7.7922    8.8564 H         1 <0>         0.1324
     44 H7        -10.3114    9.5603    8.0644 H         1 <0>         0.1436
     45 H8        -11.1571    9.5522    5.7266 H         1 <0>         0.1444
     46 H9         -6.4097    2.7934    2.3281 H         1 <0>         0.0411
     47 H10        -7.7593    4.8995    2.3179 H         1 <0>         0.1692
     48 H11        -6.5444    1.1432    6.5753 H         1 <0>         0.4814
     49 H12        -6.7620    1.4983   11.1409 H         1 <0>         0.1361
     50 H13        -9.4089    3.2354    7.3157 H         1 <0>         0.2087
     51 H14       -10.9166    3.7880   10.6819 H         1 <0>         0.2835
     52 H15       -12.7106    4.7827   10.4154 H         1 <0>         0.1240
     53 H16       -14.4274    5.8229    9.0340 H         1 <0>         0.1527
     54 H17       -13.4246    5.4009    7.4700 H         1 <0>         0.1527
     55 H18       -10.1108    1.9382   13.4906 H         1 <0>         0.1087
     56 H19        -9.3118    0.6899   12.4757 H         1 <0>         0.1087
     57 H20       -10.7796    1.5324   11.8735 H         1 <0>         0.1087
     58 H21        -8.5131    4.6908   11.9677 H         1 <0>         0.1275
     59 H22        -9.4587    4.0589   13.3581 H         1 <0>         0.1275
     60 H23        -7.5004    2.7621   14.1006 H         1 <0>         0.1191
     61 H24        -6.5547    3.3941   12.7103 H         1 <0>         0.1191
     62 H25        -6.0781    6.6487   13.9769 H         1 <0>         0.1193
     63 H26        -7.0359    6.1035   12.5583 H         1 <0>         0.1193
     64 H27        -5.4382    5.3584   12.9033 H         1 <0>         0.1193
     65 H28        -5.8520    5.2993   15.8742 H         1 <0>         0.1193
     66 H29        -5.1997    3.9345   14.9055 H         1 <0>         0.1193
     67 H30        -6.6303    3.6827   15.9622 H         1 <0>         0.1193
     68 H31        -3.6231    1.2814    8.6245 H         1 <0>         0.0542
     69 H32        -4.4123    2.4239    9.7640 H         1 <0>         0.0542
     70 H33        -4.5871    2.6588    7.9917 H         1 <0>         0.0542
     71 H34        -7.9460    5.1659   14.5868 H         1 <0>         0.4623
     72 H35        -9.9228    3.1826   11.4919 H         1 <0>         0.4322
@<TRIPOS>BOND
     1    1    2 1
     2    1   38 1
     3    1   39 1
     4    1   40 1
     5    2   10 1
     6    2    3 1
     7    3    4 2
     8    3   41 1
     9    4    5 1
    10    4   11 1
    11    5   10 ar
    12    5    6 ar
    13    6    7 ar
    14    6   42 1
    15    7    8 ar
    16    7   43 1
    17    8    9 ar
    18    8   44 1
    19    9   10 ar
    20    9   45 1
    21   11   16 ar
    22   11   12 ar
    23   12   13 ar
    24   13   14 ar
    25   13   17 1
    26   14   15 ar
    27   15   16 ar
    28   15   46 1
    29   16   47 1
    30   17   18 1
    31   17   48 1
    32   18   23 ar
    33   18   19 ar
    34   19   20 ar
    35   19   36 1
    36   20   21 ar
    37   20   49 1
    38   21   22 ar
    39   21   29 1
    40   22   23 ar
    41   22   24 1
    42   23   50 1
    43   24   25 am
    44   24   51 1
    45   25   26 2
    46   25   27 1
    47   27   28 2
    48   27   52 1
    49   28   53 1
    50   28   54 1
    51   29   30 1
    52   29   31 1
    53   29   72 1
    54   30   55 1
    55   30   56 1
    56   30   57 1
    57   31   32 1
    58   31   58 1
    59   31   59 1
    60   32   33 1
    61   32   60 1
    62   32   61 1
    63   33   34 1
    64   33   35 1
    65   33   71 1
    66   34   62 1
    67   34   63 1
    68   34   64 1
    69   35   65 1
    70   35   66 1
    71   35   67 1
    72   36   37 1
    73   37   68 1
    74   37   69 1
    75   37   70 1
