@<TRIPOS>MOLECULE
2-[5-methoxy-~{N}-methyl-4-[[4-(1-methylindol-3-yl)pyrimidin-2-yl]amino]-2-(prop-2-enoylamino)anilino]ethyl-dimethyl-ammonium
   71    74     1     0     0
SMALL
USER_CHARGES

@<TRIPOS>ATOM
      1 C13        -3.2190  -49.7970   11.0900 C.3       1 YY3         0.0781
      2 N2         -2.4360  -49.0430   12.0780 N.4       1 YY3        -0.6708
      3 C12        -3.1940  -48.2140   13.0480 C.3       1 YY3         0.0781
      4 C11        -1.8790  -50.1420   12.9170 C.3       1 YY3         0.0570
      5 C10        -0.3450  -50.2720   12.7500 C.3       1 YY3         0.2437
      6 N1          0.2540  -49.4220   13.8270 N.pl3     1 YY3        -0.7367
      7 C28         1.2860  -48.4860   13.3050 C.3       1 YY3         0.2143
      8 C3          1.8270  -50.9880   14.7920 C.ar      1 YY3        -0.1087
      9 C4          2.2570  -51.7560   15.8830 C.ar      1 YY3         0.0089
     10 O1          3.3840  -52.5630   15.7970 O.3       1 YY3        -0.3334
     11 C14         4.2560  -52.2140   14.7430 C.3       1 YY3         0.1075
     12 C2          0.6890  -50.2020   14.9230 C.ar      1 YY3         0.0300
     13 C1         -0.0870  -50.1800   16.1140 C.ar      1 YY3         0.1077
     14 N          -1.1890  -49.3830   16.2610 N.am      1 YY3        -0.4772
     15 C7         -2.2310  -49.6780   17.0600 C.2       1 YY3         0.6659
     16 O          -2.2740  -50.7450   17.6610 O.2       1 YY3        -0.5615
     17 C8         -3.3970  -48.6770   17.2180 C.2       1 YY3        -0.2598
     18 C9         -4.5960  -48.9250   18.0680 C.2       1 YY3        -0.1041
     19 C6          0.3770  -50.9640   17.2040 C.ar      1 YY3        -0.1683
     20 C5          1.5390  -51.7450   17.1020 C.ar      1 YY3         0.2051
     21 N3          2.0390  -52.5820   18.1300 N.pl3     1 YY3        -0.7139
     22 C15         1.6980  -52.5930   19.4850 C.ar      1 YY3         0.8575
     23 N5          0.9690  -51.6510   20.0690 N.ar      1 YY3        -0.7228
     24 N4          2.1650  -53.6150   20.2090 N.ar      1 YY3        -0.7336
     25 C16         1.8870  -53.7180   21.5680 C.ar      1 YY3         0.4579
     26 C17         1.1370  -52.7430   22.1890 C.ar      1 YY3        -0.3891
     27 C18         0.6750  -51.6860   21.3960 C.ar      1 YY3         0.5756
     28 C19        -0.1460  -50.6020   22.0120 C.ar      1 YY3        -0.2423
     29 C26        -0.4110  -49.3940   21.4760 C.ar      1 YY3        -0.0617
     30 C25        -0.0560  -48.8180   20.3070 C.ar      1 YY3        -0.0796
     31 C24        -0.4670  -47.5300   19.9650 C.ar      1 YY3        -0.1516
     32 C23        -1.2660  -46.8340   20.8660 C.ar      1 YY3        -0.1125
     33 C22        -1.6160  -47.4370   22.0710 C.ar      1 YY3        -0.1365
     34 C21        -1.1720  -48.7260   22.3530 C.ar      1 YY3         0.0813
     35 N6         -1.3740  -49.5080   23.4040 N.pl3     1 YY3        -0.4869
     36 C27        -2.1580  -49.1370   24.5860 C.3       1 YY3         0.2072
     37 C20        -0.7510  -50.6610   23.2050 C.ar      1 YY3         0.0432
     38 H1         -3.6975  -49.0966   10.3896 H         1 YY3         0.1059
     39 H2         -3.9922  -50.3848   11.6063 H         1 YY3         0.1059
     40 H3         -2.5536  -50.4741   10.5343 H         1 YY3         0.1059
     41 H5         -2.4909  -47.7069   13.7251 H         1 YY3         0.1059
     42 H6         -3.8670  -48.8578   13.6333 H         1 YY3         0.1059
     43 H7         -3.7859  -47.4629   12.5045 H         1 YY3         0.1059
     44 H8         -2.0951  -49.9400   13.9765 H         1 YY3         0.1075
     45 H9         -2.3404  -51.0967   12.6242 H         1 YY3         0.1075
     46 H10        -0.0519  -51.3262   12.8633 H         1 YY3         0.0527
     47 H11        -0.0534  -49.9157   11.7510 H         1 YY3         0.0527
     48 H12         1.6917  -47.8880   14.1343 H         1 YY3         0.0392
     49 H13         0.8311  -47.8175   12.5592 H         1 YY3         0.0392
     50 H14         2.0981  -49.0605   12.8355 H         1 YY3         0.0392
     51 H15         2.3740  -51.0070   13.8610 H         1 YY3         0.1266
     52 H16         5.1196  -52.8953   14.7408 H         1 YY3         0.0414
     53 H17         4.6048  -51.1802   14.8828 H         1 YY3         0.0414
     54 H18         3.7229  -52.2947   13.7842 H         1 YY3         0.0414
     55 H19        -1.2604  -48.4355   15.7067 H         1 YY3         0.3100
     56 H20        -3.3059  -47.7354   16.6567 H         1 YY3         0.1250
     57 H22        -5.3898  -48.1664   18.1340 H         1 YY3         0.1385
     58 H23        -4.6871  -49.8666   18.6293 H         1 YY3         0.1385
     59 H25        -0.1760  -50.9590   18.1310 H         1 YY3         0.2156
     60 H26         2.7972  -53.3446   17.8984 H         1 YY3         0.4567
     61 H27         2.2580  -54.5590   22.1350 H         1 YY3         0.0340
     62 H28         0.9150  -52.7920   23.2450 H         1 YY3         0.1642
     63 H29         0.5640  -49.3710   19.6170 H         1 YY3         0.1412
     64 H30        -0.1730  -47.0850   19.0260 H         1 YY3         0.1314
     65 H31        -1.6110  -45.8370   20.6330 H         1 YY3         0.1338
     66 H32        -2.2300  -46.9070   22.7840 H         1 YY3         0.1347
     67 H33        -2.1605  -49.9726   25.3014 H         1 YY3         0.0543
     68 H34        -3.1911  -48.9096   24.2842 H         1 YY3         0.0543
     69 H35        -1.7107  -48.2504   25.0592 H         1 YY3         0.0543
     70 H36        -0.7340  -51.5000   23.8850 H         1 YY3         0.1708
     71 H71        -1.7762  -48.3563   11.5275 H         1 YY3         0.4505
@<TRIPOS>BOND
     1    1    2 1
     2    1   38 1
     3    1   39 1
     4    1   40 1
     5    2    4 1
     6    2    3 1
     7    2   71 1
     8    3   41 1
     9    3   42 1
    10    3   43 1
    11    4   44 1
    12    4   45 1
    13    4    5 1
    14    5    6 1
    15    5   46 1
    16    5   47 1
    17    6   12 1
    18    6    7 1
    19    7   48 1
    20    7   49 1
    21    7   50 1
    22    8   12 ar
    23    8    9 ar
    24    8   51 1
    25    9   20 ar
    26    9   10 1
    27   10   11 1
    28   11   52 1
    29   11   53 1
    30   11   54 1
    31   12   13 ar
    32   13   14 1
    33   13   19 ar
    34   14   15 am
    35   14   55 1
    36   15   17 1
    37   15   16 2
    38   17   18 2
    39   17   56 1
    40   18   57 1
    41   18   58 1
    42   19   59 1
    43   19   20 ar
    44   20   21 1
    45   21   22 1
    46   21   60 1
    47   22   23 ar
    48   22   24 ar
    49   23   27 ar
    50   24   25 ar
    51   25   26 ar
    52   25   61 1
    53   26   62 1
    54   26   27 ar
    55   27   28 1
    56   28   37 ar
    57   28   29 ar
    58   29   34 ar
    59   29   30 ar
    60   30   63 1
    61   30   31 ar
    62   31   32 ar
    63   31   64 1
    64   32   33 ar
    65   32   65 1
    66   33   34 ar
    67   33   66 1
    68   34   35 ar
    69   35   36 1
    70   35   37 ar
    71   36   67 1
    72   36   68 1
    73   36   69 1
    74   37   70 1
@<TRIPOS>SUBSTRUCTURE
     1 YY3         1 GROUP   0 A     ****
@<TRIPOS>MOLECULE
~{N}-[2-[2-(dimethylamino)ethyl-methyl-amino]-4-methoxy-5-[[4-(1-methylindol-3-yl)pyrimidin-2-yl]amino]phenyl]prop-2-enamide
   70    73     1     0     0
SMALL
USER_CHARGES

@<TRIPOS>ATOM
      1 C13        -3.2190  -49.7970   11.0900 C.3       1 YY3         0.1389
      2 N2         -2.4360  -49.0430   12.0780 N.3       1 YY3        -0.7041
      3 C12        -3.1940  -48.2140   13.0480 C.3       1 YY3         0.1389
      4 C11        -1.8790  -50.1420   12.9170 C.3       1 YY3         0.1347
      5 C10        -0.3450  -50.2720   12.7500 C.3       1 YY3         0.2462
      6 N1          0.2540  -49.4220   13.8270 N.pl3     1 YY3        -0.7606
      7 C28         1.2860  -48.4860   13.3050 C.3       1 YY3         0.2279
      8 C3          1.8270  -50.9880   14.7920 C.ar      1 YY3        -0.1145
      9 C4          2.2570  -51.7560   15.8830 C.ar      1 YY3         0.0163
     10 O1          3.3840  -52.5630   15.7970 O.3       1 YY3        -0.3473
     11 C14         4.2560  -52.2140   14.7430 C.3       1 YY3         0.1121
     12 C2          0.6890  -50.2020   14.9230 C.ar      1 YY3         0.1001
     13 C1         -0.0870  -50.1800   16.1140 C.ar      1 YY3         0.0701
     14 N          -1.1890  -49.3830   16.2610 N.am      1 YY3        -0.4661
     15 C7         -2.2310  -49.6780   17.0600 C.2       1 YY3         0.6611
     16 O          -2.2740  -50.7450   17.6610 O.2       1 YY3        -0.5842
     17 C8         -3.3970  -48.6770   17.2180 C.2       1 YY3        -0.2431
     18 C9         -4.5960  -48.9250   18.0680 C.2       1 YY3        -0.1303
     19 C6          0.3770  -50.9640   17.2040 C.ar      1 YY3        -0.1567
     20 C5          1.5390  -51.7450   17.1020 C.ar      1 YY3         0.1685
     21 N3          2.0390  -52.5820   18.1300 N.pl3     1 YY3        -0.7235
     22 C15         1.6980  -52.5930   19.4850 C.ar      1 YY3         0.8814
     23 N5          0.9690  -51.6510   20.0690 N.ar      1 YY3        -0.7704
     24 N4          2.1650  -53.6150   20.2090 N.ar      1 YY3        -0.7304
     25 C16         1.8870  -53.7180   21.5680 C.ar      1 YY3         0.4628
     26 C17         1.1370  -52.7430   22.1890 C.ar      1 YY3        -0.4134
     27 C18         0.6750  -51.6860   21.3960 C.ar      1 YY3         0.5812
     28 C19        -0.1460  -50.6020   22.0120 C.ar      1 YY3        -0.2405
     29 C26        -0.4110  -49.3940   21.4760 C.ar      1 YY3        -0.0635
     30 C25        -0.0560  -48.8180   20.3070 C.ar      1 YY3        -0.0906
     31 C24        -0.4670  -47.5300   19.9650 C.ar      1 YY3        -0.1503
     32 C23        -1.2660  -46.8340   20.8660 C.ar      1 YY3        -0.1187
     33 C22        -1.6160  -47.4370   22.0710 C.ar      1 YY3        -0.1362
     34 C21        -1.1720  -48.7260   22.3530 C.ar      1 YY3         0.0776
     35 N6         -1.3740  -49.5080   23.4040 N.pl3     1 YY3        -0.4898
     36 C27        -2.1580  -49.1370   24.5860 C.3       1 YY3         0.2072
     37 C20        -0.7510  -50.6610   23.2050 C.ar      1 YY3         0.0719
     38 H1         -3.6975  -49.0966   10.3896 H         1 YY3         0.0342
     39 H2         -3.9922  -50.3848   11.6063 H         1 YY3         0.0342
     40 H3         -2.5536  -50.4741   10.5343 H         1 YY3         0.0342
     41 H5         -2.4909  -47.7069   13.7251 H         1 YY3         0.0342
     42 H6         -3.8670  -48.8578   13.6333 H         1 YY3         0.0342
     43 H7         -3.7859  -47.4629   12.5045 H         1 YY3         0.0342
     44 H8         -2.0951  -49.9400   13.9765 H         1 YY3         0.0369
     45 H9         -2.3404  -51.0967   12.6242 H         1 YY3         0.0369
     46 H10        -0.0519  -51.3262   12.8633 H         1 YY3         0.0394
     47 H11        -0.0534  -49.9157   11.7510 H         1 YY3         0.0394
     48 H12         1.6917  -47.8880   14.1343 H         1 YY3         0.0267
     49 H13         0.8311  -47.8175   12.5592 H         1 YY3         0.0267
     50 H14         2.0981  -49.0605   12.8355 H         1 YY3         0.0267
     51 H15         2.3740  -51.0070   13.8610 H         1 YY3         0.1512
     52 H16         5.1196  -52.8953   14.7408 H         1 YY3         0.0401
     53 H17         4.6048  -51.1802   14.8828 H         1 YY3         0.0401
     54 H18         3.7229  -52.2947   13.7842 H         1 YY3         0.0401
     55 H19        -1.2604  -48.4355   15.7067 H         1 YY3         0.3206
     56 H20        -3.3059  -47.7354   16.6567 H         1 YY3         0.1294
     57 H22        -5.3898  -48.1664   18.1340 H         1 YY3         0.1308
     58 H23        -4.6871  -49.8666   18.6293 H         1 YY3         0.1308
     59 H25        -0.1760  -50.9590   18.1310 H         1 YY3         0.2019
     60 H26         2.7972  -53.3446   17.8984 H         1 YY3         0.4632
     61 H27         2.2580  -54.5590   22.1350 H         1 YY3         0.0278
     62 H28         0.9150  -52.7920   23.2450 H         1 YY3         0.1562
     63 H29         0.5640  -49.3710   19.6170 H         1 YY3         0.1379
     64 H30        -0.1730  -47.0850   19.0260 H         1 YY3         0.1302
     65 H31        -1.6110  -45.8370   20.6330 H         1 YY3         0.1299
     66 H32        -2.2300  -46.9070   22.7840 H         1 YY3         0.1316
     67 H33        -2.1605  -49.9726   25.3014 H         1 YY3         0.0519
     68 H34        -3.1911  -48.9096   24.2842 H         1 YY3         0.0519
     69 H35        -1.7107  -48.2504   25.0592 H         1 YY3         0.0519
     70 H36        -0.7340  -51.5000   23.8850 H         1 YY3         0.1823
@<TRIPOS>BOND
     1    1    2 1
     2    1   38 1
     3    1   39 1
     4    1   40 1
     5    2    4 1
     6    2    3 1
     7    3   41 1
     8    3   42 1
     9    3   43 1
    10    4   44 1
    11    4   45 1
    12    4    5 1
    13    5    6 1
    14    5   46 1
    15    5   47 1
    16    6   12 1
    17    6    7 1
    18    7   48 1
    19    7   49 1
    20    7   50 1
    21    8   12 ar
    22    8    9 ar
    23    8   51 1
    24    9   20 ar
    25    9   10 1
    26   10   11 1
    27   11   52 1
    28   11   53 1
    29   11   54 1
    30   12   13 ar
    31   13   14 1
    32   13   19 ar
    33   14   15 am
    34   14   55 1
    35   15   17 1
    36   15   16 2
    37   17   18 2
    38   17   56 1
    39   18   57 1
    40   18   58 1
    41   19   59 1
    42   19   20 ar
    43   20   21 1
    44   21   22 1
    45   21   60 1
    46   22   23 ar
    47   22   24 ar
    48   23   27 ar
    49   24   25 ar
    50   25   26 ar
    51   25   61 1
    52   26   62 1
    53   26   27 ar
    54   27   28 1
    55   28   37 ar
    56   28   29 ar
    57   29   34 ar
    58   29   30 ar
    59   30   63 1
    60   30   31 ar
    61   31   32 ar
    62   31   64 1
    63   32   33 ar
    64   32   65 1
    65   33   34 ar
    66   33   66 1
    67   34   35 ar
    68   35   36 1
    69   35   37 ar
    70   36   67 1
    71   36   68 1
    72   36   69 1
    73   37   70 1
@<TRIPOS>SUBSTRUCTURE
     1 YY3         1 GROUP   0 A     ****
@<TRIPOS>MOLECULE
2-(dimethylamino)ethyl-[5-methoxy-4-[[4-(1-methylindol-3-yl)pyrimidin-2-yl]amino]-2-(prop-2-enoylamino)phenyl]-methyl-ammonium
   71    74     1     0     0
SMALL
USER_CHARGES

@<TRIPOS>ATOM
      1 C13        -3.2190  -49.7970   11.0900 C.3       1 YY3         0.1290
      2 N2         -2.4360  -49.0430   12.0780 N.3       1 YY3        -0.6976
      3 C12        -3.1940  -48.2140   13.0480 C.3       1 YY3         0.1290
      4 C11        -1.8790  -50.1420   12.9170 C.3       1 YY3         0.1323
      5 C10        -0.3450  -50.2720   12.7500 C.3       1 YY3         0.1018
      6 N1          0.2540  -49.4220   13.8270 N.4       1 YY3        -0.5277
      7 C28         1.2860  -48.4860   13.3050 C.3       1 YY3         0.0844
      8 C3          1.8270  -50.9880   14.7920 C.ar      1 YY3        -0.0695
      9 C4          2.2570  -51.7560   15.8830 C.ar      1 YY3         0.0132
     10 O1          3.3840  -52.5630   15.7970 O.3       1 YY3        -0.3372
     11 C14         4.2560  -52.2140   14.7430 C.3       1 YY3         0.1077
     12 C2          0.6890  -50.2020   14.9230 C.ar      1 YY3        -0.1771
     13 C1         -0.0870  -50.1800   16.1140 C.ar      1 YY3         0.1582
     14 N          -1.1890  -49.3830   16.2610 N.am      1 YY3        -0.4975
     15 C7         -2.2310  -49.6780   17.0600 C.2       1 YY3         0.6758
     16 O          -2.2740  -50.7450   17.6610 O.2       1 YY3        -0.5321
     17 C8         -3.3970  -48.6770   17.2180 C.2       1 YY3        -0.2718
     18 C9         -4.5960  -48.9250   18.0680 C.2       1 YY3        -0.0832
     19 C6          0.3770  -50.9640   17.2040 C.ar      1 YY3        -0.1872
     20 C5          1.5390  -51.7450   17.1020 C.ar      1 YY3         0.2650
     21 N3          2.0390  -52.5820   18.1300 N.pl3     1 YY3        -0.7204
     22 C15         1.6980  -52.5930   19.4850 C.ar      1 YY3         0.8537
     23 N5          0.9690  -51.6510   20.0690 N.ar      1 YY3        -0.7302
     24 N4          2.1650  -53.6150   20.2090 N.ar      1 YY3        -0.7370
     25 C16         1.8870  -53.7180   21.5680 C.ar      1 YY3         0.4568
     26 C17         1.1370  -52.7430   22.1890 C.ar      1 YY3        -0.3709
     27 C18         0.6750  -51.6860   21.3960 C.ar      1 YY3         0.5855
     28 C19        -0.1460  -50.6020   22.0120 C.ar      1 YY3        -0.2641
     29 C26        -0.4110  -49.3940   21.4760 C.ar      1 YY3        -0.0642
     30 C25        -0.0560  -48.8180   20.3070 C.ar      1 YY3        -0.0965
     31 C24        -0.4670  -47.5300   19.9650 C.ar      1 YY3        -0.1402
     32 C23        -1.2660  -46.8340   20.8660 C.ar      1 YY3        -0.1122
     33 C22        -1.6160  -47.4370   22.0710 C.ar      1 YY3        -0.1293
     34 C21        -1.1720  -48.7260   22.3530 C.ar      1 YY3         0.0770
     35 N6         -1.3740  -49.5080   23.4040 N.pl3     1 YY3        -0.4781
     36 C27        -2.1580  -49.1370   24.5860 C.3       1 YY3         0.2013
     37 C20        -0.7510  -50.6610   23.2050 C.ar      1 YY3         0.0705
     38 H1         -3.6975  -49.0966   10.3896 H         1 YY3         0.0497
     39 H2         -3.9922  -50.3848   11.6063 H         1 YY3         0.0497
     40 H3         -2.5536  -50.4741   10.5343 H         1 YY3         0.0497
     41 H5         -2.4909  -47.7069   13.7251 H         1 YY3         0.0497
     42 H6         -3.8670  -48.8578   13.6333 H         1 YY3         0.0497
     43 H7         -3.7859  -47.4629   12.5045 H         1 YY3         0.0497
     44 H8         -2.0951  -49.9400   13.9765 H         1 YY3         0.0452
     45 H9         -2.3404  -51.0967   12.6242 H         1 YY3         0.0452
     46 H10        -0.0519  -51.3262   12.8633 H         1 YY3         0.1164
     47 H11        -0.0534  -49.9157   11.7510 H         1 YY3         0.1164
     48 H12         1.6917  -47.8880   14.1343 H         1 YY3         0.0998
     49 H13         0.8311  -47.8175   12.5592 H         1 YY3         0.0998
     50 H14         2.0981  -49.0605   12.8355 H         1 YY3         0.0998
     51 H15         2.3740  -51.0070   13.8610 H         1 YY3         0.1586
     52 H16         5.1196  -52.8953   14.7408 H         1 YY3         0.0521
     53 H17         4.6048  -51.1802   14.8828 H         1 YY3         0.0521
     54 H18         3.7229  -52.2947   13.7842 H         1 YY3         0.0521
     55 H19        -1.2604  -48.4355   15.7067 H         1 YY3         0.2913
     56 H20        -3.3059  -47.7354   16.6567 H         1 YY3         0.1295
     57 H22        -5.3898  -48.1664   18.1340 H         1 YY3         0.1450
     58 H23        -4.6871  -49.8666   18.6293 H         1 YY3         0.1450
     59 H25        -0.1760  -50.9590   18.1310 H         1 YY3         0.2207
     60 H26         2.7972  -53.3446   17.8984 H         1 YY3         0.4811
     61 H27         2.2580  -54.5590   22.1350 H         1 YY3         0.0377
     62 H28         0.9150  -52.7920   23.2450 H         1 YY3         0.1735
     63 H29         0.5640  -49.3710   19.6170 H         1 YY3         0.1326
     64 H30        -0.1730  -47.0850   19.0260 H         1 YY3         0.1357
     65 H31        -1.6110  -45.8370   20.6330 H         1 YY3         0.1386
     66 H32        -2.2300  -46.9070   22.7840 H         1 YY3         0.1383
     67 H33        -2.1605  -49.9726   25.3014 H         1 YY3         0.0567
     68 H34        -3.1911  -48.9096   24.2842 H         1 YY3         0.0567
     69 H35        -1.7107  -48.2504   25.0592 H         1 YY3         0.0567
     70 H36        -0.7340  -51.5000   23.8850 H         1 YY3         0.1774
     71 H71        -0.5287  -48.7962   14.2806 H         1 YY3         0.4309
@<TRIPOS>BOND
     1    1    2 1
     2    1   38 1
     3    1   39 1
     4    1   40 1
     5    2    4 1
     6    2    3 1
     7    3   41 1
     8    3   42 1
     9    3   43 1
    10    4   44 1
    11    4   45 1
    12    4    5 1
    13    5    6 1
    14    5   46 1
    15    5   47 1
    16    6   12 1
    17    6    7 1
    18    6   71 1
    19    7   48 1
    20    7   49 1
    21    7   50 1
    22    8   12 ar
    23    8    9 ar
    24    8   51 1
    25    9   20 ar
    26    9   10 1
    27   10   11 1
    28   11   52 1
    29   11   53 1
    30   11   54 1
    31   12   13 ar
    32   13   14 1
    33   13   19 ar
    34   14   15 am
    35   14   55 1
    36   15   17 1
    37   15   16 2
    38   17   18 2
    39   17   56 1
    40   18   57 1
    41   18   58 1
    42   19   59 1
    43   19   20 ar
    44   20   21 1
    45   21   22 1
    46   21   60 1
    47   22   23 ar
    48   22   24 ar
    49   23   27 ar
    50   24   25 ar
    51   25   26 ar
    52   25   61 1
    53   26   62 1
    54   26   27 ar
    55   27   28 1
    56   28   37 ar
    57   28   29 ar
    58   29   34 ar
    59   29   30 ar
    60   30   63 1
    61   30   31 ar
    62   31   32 ar
    63   31   64 1
    64   32   33 ar
    65   32   65 1
    66   33   34 ar
    67   33   66 1
    68   34   35 ar
    69   35   36 1
    70   35   37 ar
    71   36   67 1
    72   36   68 1
    73   36   69 1
    74   37   70 1
@<TRIPOS>SUBSTRUCTURE
     1 YY3         1 GROUP 0 A     ****
@<TRIPOS>MOLECULE
[2-[2-(dimethylammonio)ethyl-methyl-amino]-4-methoxy-5-[[4-(1-methylindol-3-yl)pyrimidin-2-yl]amino]phenyl]-(1-oxoniumylideneallyl)azanide
   71    74     1     0     0
SMALL
USER_CHARGES

@<TRIPOS>ATOM
      1 C13        -3.2190  -49.7970   11.0900 C.3       1 YY3         0.0835
      2 N2         -2.4360  -49.0430   12.0780 N.4       1 YY3        -0.6784
      3 C12        -3.1940  -48.2140   13.0480 C.3       1 YY3         0.0835
      4 C11        -1.8790  -50.1420   12.9170 C.3       1 YY3         0.0714
      5 C10        -0.3450  -50.2720   12.7500 C.3       1 YY3         0.2127
      6 N1          0.2540  -49.4220   13.8270 N.pl3     1 YY3        -0.6755
      7 C28         1.2860  -48.4860   13.3050 C.3       1 YY3         0.2007
      8 C3          1.8270  -50.9880   14.7920 C.ar      1 YY3        -0.1155
      9 C4          2.2570  -51.7560   15.8830 C.ar      1 YY3         0.0307
     10 O1          3.3840  -52.5630   15.7970 O.3       1 YY3        -0.3455
     11 C14         4.2560  -52.2140   14.7430 C.3       1 YY3         0.1133
     12 C2          0.6890  -50.2020   14.9230 C.ar      1 YY3         0.0847
     13 C1         -0.0870  -50.1800   16.1140 C.ar      1 YY3         0.0134
     14 N          -1.1890  -49.3830   16.2610 N.2       1 YY3        -0.3165
     15 C7         -2.2310  -49.6780   17.0600 C.2       1 YY3         0.5213
     16 O          -2.2740  -50.7450   17.6610 O.3       1 YY3        -0.7256
     17 C8         -3.3970  -48.6770   17.2180 C.2       1 YY3        -0.1744
     18 C9         -4.5960  -48.9250   18.0680 C.2       1 YY3        -0.1315
     19 C6          0.3770  -50.9640   17.2040 C.ar      1 YY3        -0.1972
     20 C5          1.5390  -51.7450   17.1020 C.ar      1 YY3         0.2045
     21 N3          2.0390  -52.5820   18.1300 N.pl3     1 YY3        -0.7412
     22 C15         1.6980  -52.5930   19.4850 C.ar      1 YY3         0.8824
     23 N5          0.9690  -51.6510   20.0690 N.ar      1 YY3        -0.7460
     24 N4          2.1650  -53.6150   20.2090 N.ar      1 YY3        -0.7585
     25 C16         1.8870  -53.7180   21.5680 C.ar      1 YY3         0.4621
     26 C17         1.1370  -52.7430   22.1890 C.ar      1 YY3        -0.4089
     27 C18         0.6750  -51.6860   21.3960 C.ar      1 YY3         0.5950
     28 C19        -0.1460  -50.6020   22.0120 C.ar      1 YY3        -0.2517
     29 C26        -0.4110  -49.3940   21.4760 C.ar      1 YY3        -0.0522
     30 C25        -0.0560  -48.8180   20.3070 C.ar      1 YY3        -0.0766
     31 C24        -0.4670  -47.5300   19.9650 C.ar      1 YY3        -0.1517
     32 C23        -1.2660  -46.8340   20.8660 C.ar      1 YY3        -0.1126
     33 C22        -1.6160  -47.4370   22.0710 C.ar      1 YY3        -0.1338
     34 C21        -1.1720  -48.7260   22.3530 C.ar      1 YY3         0.0715
     35 N6         -1.3740  -49.5080   23.4040 N.pl3     1 YY3        -0.4752
     36 C27        -2.1580  -49.1370   24.5860 C.3       1 YY3         0.2015
     37 C20        -0.7510  -50.6610   23.2050 C.ar      1 YY3         0.0566
     38 H1         -3.6975  -49.0966   10.3896 H         1 YY3         0.1048
     39 H2         -3.9922  -50.3848   11.6063 H         1 YY3         0.1048
     40 H3         -2.5536  -50.4741   10.5343 H         1 YY3         0.1048
     41 H5         -2.4909  -47.7069   13.7251 H         1 YY3         0.1048
     42 H6         -3.8670  -48.8578   13.6333 H         1 YY3         0.1048
     43 H7         -3.7859  -47.4629   12.5045 H         1 YY3         0.1048
     44 H8         -2.0951  -49.9400   13.9765 H         1 YY3         0.1064
     45 H9         -2.3404  -51.0967   12.6242 H         1 YY3         0.1064
     46 H10        -0.0519  -51.3262   12.8633 H         1 YY3         0.0560
     47 H11        -0.0534  -49.9157   11.7510 H         1 YY3         0.0560
     48 H12         1.6917  -47.8880   14.1343 H         1 YY3         0.0422
     49 H13         0.8311  -47.8175   12.5592 H         1 YY3         0.0422
     50 H14         2.0981  -49.0605   12.8355 H         1 YY3         0.0422
     51 H15         2.3740  -51.0070   13.8610 H         1 YY3         0.1351
     52 H16         5.1196  -52.8953   14.7408 H         1 YY3         0.0437
     53 H17         4.6048  -51.1802   14.8828 H         1 YY3         0.0437
     54 H18         3.7229  -52.2947   13.7842 H         1 YY3         0.0437
     55 H20        -3.3059  -47.7354   16.6567 H         1 YY3         0.1530
     56 H22        -5.3898  -48.1664   18.1340 H         1 YY3         0.1354
     57 H23        -4.6871  -49.8666   18.6293 H         1 YY3         0.1354
     58 H25        -0.1760  -50.9590   18.1310 H         1 YY3         0.1750
     59 H26         2.7972  -53.3446   17.8984 H         1 YY3         0.4737
     60 H27         2.2580  -54.5590   22.1350 H         1 YY3         0.0283
     61 H28         0.9150  -52.7920   23.2450 H         1 YY3         0.1569
     62 H29         0.5640  -49.3710   19.6170 H         1 YY3         0.1463
     63 H30        -0.1730  -47.0850   19.0260 H         1 YY3         0.1304
     64 H31        -1.6110  -45.8370   20.6330 H         1 YY3         0.1345
     65 H32        -2.2300  -46.9070   22.7840 H         1 YY3         0.1365
     66 H33        -2.1605  -49.9726   25.3014 H         1 YY3         0.0568
     67 H34        -3.1911  -48.9096   24.2842 H         1 YY3         0.0568
     68 H35        -1.7107  -48.2504   25.0592 H         1 YY3         0.0568
     69 H36        -0.7340  -51.5000   23.8850 H         1 YY3         0.1712
     70 H70        -1.7762  -48.3563   11.5275 H         1 YY3         0.4498
     71 H71        -3.1305  -50.9757   18.3115 H         1 YY3         0.4365
@<TRIPOS>BOND
     1    1    2 1
     2    1   38 1
     3    1   39 1
     4    1   40 1
     5    2    4 1
     6    2    3 1
     7    2   70 1
     8    3   41 1
     9    3   42 1
    10    3   43 1
    11    4   44 1
    12    4   45 1
    13    4    5 1
    14    5    6 1
    15    5   46 1
    16    5   47 1
    17    6   12 1
    18    6    7 1
    19    7   48 1
    20    7   49 1
    21    7   50 1
    22    8   12 ar
    23    8    9 ar
    24    8   51 1
    25    9   20 ar
    26    9   10 1
    27   10   11 1
    28   11   52 1
    29   11   53 1
    30   11   54 1
    31   12   13 ar
    32   13   14 1
    33   13   19 ar
    34   14   15 1
    35   15   17 1
    36   15   16 2
    37   16   71 1
    38   17   18 2
    39   17   55 1
    40   18   56 1
    41   18   57 1
    42   19   58 1
    43   19   20 ar
    44   20   21 1
    45   21   22 1
    46   21   59 1
    47   22   23 ar
    48   22   24 ar
    49   23   27 ar
    50   24   25 ar
    51   25   26 ar
    52   25   60 1
    53   26   61 1
    54   26   27 ar
    55   27   28 1
    56   28   37 ar
    57   28   29 ar
    58   29   34 ar
    59   29   30 ar
    60   30   62 1
    61   30   31 ar
    62   31   32 ar
    63   31   63 1
    64   32   33 ar
    65   32   64 1
    66   33   34 ar
    67   33   65 1
    68   34   35 ar
    69   35   36 1
    70   35   37 ar
    71   36   66 1
    72   36   67 1
    73   36   68 1
    74   37   69 1
@<TRIPOS>SUBSTRUCTURE
     1 YY3         1 GROUP 0 A     ****
@<TRIPOS>MOLECULE
[2-[2-(dimethylamino)ethyl-methyl-ammonio]-4-methoxy-5-[[4-(1-methylindol-3-yl)pyrimidin-2-yl]amino]phenyl]-(1-oxoniumylideneallyl)azanide
   71    74     1     0     0
SMALL
USER_CHARGES

@<TRIPOS>ATOM
      1 C13        -3.2190  -49.7970   11.0900 C.3       1 YY3         0.1299
      2 N2         -2.4360  -49.0430   12.0780 N.3       1 YY3        -0.6969
      3 C12        -3.1940  -48.2140   13.0480 C.3       1 YY3         0.1299
      4 C11        -1.8790  -50.1420   12.9170 C.3       1 YY3         0.1330
      5 C10        -0.3450  -50.2720   12.7500 C.3       1 YY3         0.1000
      6 N1          0.2540  -49.4220   13.8270 N.4       1 YY3        -0.5265
      7 C28         1.2860  -48.4860   13.3050 C.3       1 YY3         0.0925
      8 C3          1.8270  -50.9880   14.7920 C.ar      1 YY3        -0.0789
      9 C4          2.2570  -51.7560   15.8830 C.ar      1 YY3         0.0222
     10 O1          3.3840  -52.5630   15.7970 O.3       1 YY3        -0.3379
     11 C14         4.2560  -52.2140   14.7430 C.3       1 YY3         0.1064
     12 C2          0.6890  -50.2020   14.9230 C.ar      1 YY3        -0.1163
     13 C1         -0.0870  -50.1800   16.1140 C.ar      1 YY3         0.0946
     14 N          -1.1890  -49.3830   16.2610 N.2       1 YY3        -0.3974
     15 C7         -2.2310  -49.6780   17.0600 C.2       1 YY3         0.5664
     16 O          -2.2740  -50.7450   17.6610 O.3       1 YY3        -0.6735
     17 C8         -3.3970  -48.6770   17.2180 C.2       1 YY3        -0.2474
     18 C9         -4.5960  -48.9250   18.0680 C.2       1 YY3        -0.0836
     19 C6          0.3770  -50.9640   17.2040 C.ar      1 YY3        -0.1887
     20 C5          1.5390  -51.7450   17.1020 C.ar      1 YY3         0.2511
     21 N3          2.0390  -52.5820   18.1300 N.pl3     1 YY3        -0.7234
     22 C15         1.6980  -52.5930   19.4850 C.ar      1 YY3         0.8634
     23 N5          0.9690  -51.6510   20.0690 N.ar      1 YY3        -0.7280
     24 N4          2.1650  -53.6150   20.2090 N.ar      1 YY3        -0.7570
     25 C16         1.8870  -53.7180   21.5680 C.ar      1 YY3         0.4592
     26 C17         1.1370  -52.7430   22.1890 C.ar      1 YY3        -0.3950
     27 C18         0.6750  -51.6860   21.3960 C.ar      1 YY3         0.5979
     28 C19        -0.1460  -50.6020   22.0120 C.ar      1 YY3        -0.2616
     29 C26        -0.4110  -49.3940   21.4760 C.ar      1 YY3        -0.0527
     30 C25        -0.0560  -48.8180   20.3070 C.ar      1 YY3        -0.0810
     31 C24        -0.4670  -47.5300   19.9650 C.ar      1 YY3        -0.1468
     32 C23        -1.2660  -46.8340   20.8660 C.ar      1 YY3        -0.1103
     33 C22        -1.6160  -47.4370   22.0710 C.ar      1 YY3        -0.1311
     34 C21        -1.1720  -48.7260   22.3530 C.ar      1 YY3         0.0716
     35 N6         -1.3740  -49.5080   23.4040 N.pl3     1 YY3        -0.4709
     36 C27        -2.1580  -49.1370   24.5860 C.3       1 YY3         0.1992
     37 C20        -0.7510  -50.6610   23.2050 C.ar      1 YY3         0.0613
     38 H1         -3.6975  -49.0966   10.3896 H         1 YY3         0.0481
     39 H2         -3.9922  -50.3848   11.6063 H         1 YY3         0.0481
     40 H3         -2.5536  -50.4741   10.5343 H         1 YY3         0.0481
     41 H5         -2.4909  -47.7069   13.7251 H         1 YY3         0.0481
     42 H6         -3.8670  -48.8578   13.6333 H         1 YY3         0.0481
     43 H7         -3.7859  -47.4629   12.5045 H         1 YY3         0.0481
     44 H8         -2.0951  -49.9400   13.9765 H         1 YY3         0.0492
     45 H9         -2.3404  -51.0967   12.6242 H         1 YY3         0.0492
     46 H10        -0.0519  -51.3262   12.8633 H         1 YY3         0.1097
     47 H11        -0.0534  -49.9157   11.7510 H         1 YY3         0.1097
     48 H12         1.6917  -47.8880   14.1343 H         1 YY3         0.0964
     49 H13         0.8311  -47.8175   12.5592 H         1 YY3         0.0964
     50 H14         2.0981  -49.0605   12.8355 H         1 YY3         0.0964
     51 H15         2.3740  -51.0070   13.8610 H         1 YY3         0.1613
     52 H16         5.1196  -52.8953   14.7408 H         1 YY3         0.0525
     53 H17         4.6048  -51.1802   14.8828 H         1 YY3         0.0525
     54 H18         3.7229  -52.2947   13.7842 H         1 YY3         0.0525
     55 H20        -3.3059  -47.7354   16.6567 H         1 YY3         0.1448
     56 H22        -5.3898  -48.1664   18.1340 H         1 YY3         0.1430
     57 H23        -4.6871  -49.8666   18.6293 H         1 YY3         0.1430
     58 H25        -0.1760  -50.9590   18.1310 H         1 YY3         0.1832
     59 H26         2.7972  -53.3446   17.8984 H         1 YY3         0.4801
     60 H27         2.2580  -54.5590   22.1350 H         1 YY3         0.0328
     61 H28         0.9150  -52.7920   23.2450 H         1 YY3         0.1617
     62 H29         0.5640  -49.3710   19.6170 H         1 YY3         0.1453
     63 H30        -0.1730  -47.0850   19.0260 H         1 YY3         0.1346
     64 H31        -1.6110  -45.8370   20.6330 H         1 YY3         0.1377
     65 H32        -2.2300  -46.9070   22.7840 H         1 YY3         0.1383
     66 H33        -2.1605  -49.9726   25.3014 H         1 YY3         0.0592
     67 H34        -3.1911  -48.9096   24.2842 H         1 YY3         0.0592
     68 H35        -1.7107  -48.2504   25.0592 H         1 YY3         0.0592
     69 H36        -0.7340  -51.5000   23.8850 H         1 YY3         0.1719
     70 H70        -3.1305  -50.9757   18.3115 H         1 YY3         0.4573
     71 H71        -0.5287  -48.7962   14.2806 H         1 YY3         0.4608
@<TRIPOS>BOND
     1    1    2 1
     2    1   38 1
     3    1   39 1
     4    1   40 1
     5    2    4 1
     6    2    3 1
     7    3   41 1
     8    3   42 1
     9    3   43 1
    10    4   44 1
    11    4   45 1
    12    4    5 1
    13    5    6 1
    14    5   46 1
    15    5   47 1
    16    6   12 1
    17    6    7 1
    18    6   71 1
    19    7   48 1
    20    7   49 1
    21    7   50 1
    22    8   12 ar
    23    8    9 ar
    24    8   51 1
    25    9   20 ar
    26    9   10 1
    27   10   11 1
    28   11   52 1
    29   11   53 1
    30   11   54 1
    31   12   13 ar
    32   13   14 1
    33   13   19 ar
    34   14   15 1
    35   15   17 1
    36   15   16 2
    37   16   70 1
    38   17   18 2
    39   17   55 1
    40   18   56 1
    41   18   57 1
    42   19   58 1
    43   19   20 ar
    44   20   21 1
    45   21   22 1
    46   21   59 1
    47   22   23 ar
    48   22   24 ar
    49   23   27 ar
    50   24   25 ar
    51   25   26 ar
    52   25   60 1
    53   26   61 1
    54   26   27 ar
    55   27   28 1
    56   28   37 ar
    57   28   29 ar
    58   29   34 ar
    59   29   30 ar
    60   30   62 1
    61   30   31 ar
    62   31   32 ar
    63   31   63 1
    64   32   33 ar
    65   32   64 1
    66   33   34 ar
    67   33   65 1
    68   34   35 ar
    69   35   36 1
    70   35   37 ar
    71   36   66 1
    72   36   67 1
    73   36   68 1
    74   37   69 1
@<TRIPOS>SUBSTRUCTURE
     1 YY3         1 GROUP 0 A     ****
@<TRIPOS>MOLECULE
2-[5-methoxy-~{N}-methyl-4-[[4-(1-methylindol-3-yl)pyrimidin-2-yl]amino]-2-(1-oxoniumylideneallylamino)anilino]ethyl-dimethyl-ammonium
   72    75     1     0     0
SMALL
USER_CHARGES

@<TRIPOS>ATOM
      1 C13        -3.2190  -49.7970   11.0900 C.3       1 YY3         0.0807
      2 N2         -2.4360  -49.0430   12.0780 N.4       1 YY3        -0.6763
      3 C12        -3.1940  -48.2140   13.0480 C.3       1 YY3         0.0807
      4 C11        -1.8790  -50.1420   12.9170 C.3       1 YY3         0.0646
      5 C10        -0.3450  -50.2720   12.7500 C.3       1 YY3         0.2059
      6 N1          0.2540  -49.4220   13.8270 N.pl3     1 YY3        -0.7095
      7 C28         1.2860  -48.4860   13.3050 C.3       1 YY3         0.1767
      8 C3          1.8270  -50.9880   14.7920 C.ar      1 YY3        -0.1212
      9 C4          2.2570  -51.7560   15.8830 C.ar      1 YY3         0.0662
     10 O1          3.3840  -52.5630   15.7970 O.3       1 YY3        -0.3332
     11 C14         4.2560  -52.2140   14.7430 C.3       1 YY3         0.1052
     12 C2          0.6890  -50.2020   14.9230 C.ar      1 YY3         0.0634
     13 C1         -0.0870  -50.1800   16.1140 C.ar      1 YY3         0.0102
     14 N          -1.1890  -49.3830   16.2610 N.am      1 YY3        -0.2776
     15 C7         -2.2310  -49.6780   17.0600 C.2       1 YY3         0.6377
     16 O          -2.2740  -50.7450   17.6610 O.3       1 YY3        -0.6252
     17 C8         -3.3970  -48.6770   17.2180 C.2       1 YY3        -0.2943
     18 C9         -4.5960  -48.9250   18.0680 C.2       1 YY3        -0.0389
     19 C6          0.3770  -50.9640   17.2040 C.ar      1 YY3        -0.1347
     20 C5          1.5390  -51.7450   17.1020 C.ar      1 YY3         0.2195
     21 N3          2.0390  -52.5820   18.1300 N.pl3     1 YY3        -0.7129
     22 C15         1.6980  -52.5930   19.4850 C.ar      1 YY3         0.8475
     23 N5          0.9690  -51.6510   20.0690 N.ar      1 YY3        -0.6951
     24 N4          2.1650  -53.6150   20.2090 N.ar      1 YY3        -0.7652
     25 C16         1.8870  -53.7180   21.5680 C.ar      1 YY3         0.4417
     26 C17         1.1370  -52.7430   22.1890 C.ar      1 YY3        -0.3540
     27 C18         0.6750  -51.6860   21.3960 C.ar      1 YY3         0.5957
     28 C19        -0.1460  -50.6020   22.0120 C.ar      1 YY3        -0.2800
     29 C26        -0.4110  -49.3940   21.4760 C.ar      1 YY3        -0.0649
     30 C25        -0.0560  -48.8180   20.3070 C.ar      1 YY3        -0.0967
     31 C24        -0.4670  -47.5300   19.9650 C.ar      1 YY3        -0.1371
     32 C23        -1.2660  -46.8340   20.8660 C.ar      1 YY3        -0.1073
     33 C22        -1.6160  -47.4370   22.0710 C.ar      1 YY3        -0.1263
     34 C21        -1.1720  -48.7260   22.3530 C.ar      1 YY3         0.0798
     35 N6         -1.3740  -49.5080   23.4040 N.pl3     1 YY3        -0.4717
     36 C27        -2.1580  -49.1370   24.5860 C.3       1 YY3         0.1993
     37 C20        -0.7510  -50.6610   23.2050 C.ar      1 YY3         0.0553
     38 H1         -3.6975  -49.0966   10.3896 H         1 YY3         0.1109
     39 H2         -3.9922  -50.3848   11.6063 H         1 YY3         0.1109
     40 H3         -2.5536  -50.4741   10.5343 H         1 YY3         0.1109
     41 H5         -2.4909  -47.7069   13.7251 H         1 YY3         0.1109
     42 H6         -3.8670  -48.8578   13.6333 H         1 YY3         0.1109
     43 H7         -3.7859  -47.4629   12.5045 H         1 YY3         0.1109
     44 H8         -2.0951  -49.9400   13.9765 H         1 YY3         0.1107
     45 H9         -2.3404  -51.0967   12.6242 H         1 YY3         0.1107
     46 H10        -0.0519  -51.3262   12.8633 H         1 YY3         0.0650
     47 H11        -0.0534  -49.9157   11.7510 H         1 YY3         0.0650
     48 H12         1.6917  -47.8880   14.1343 H         1 YY3         0.0523
     49 H13         0.8311  -47.8175   12.5592 H         1 YY3         0.0523
     50 H14         2.0981  -49.0605   12.8355 H         1 YY3         0.0523
     51 H15         2.3740  -51.0070   13.8610 H         1 YY3         0.1491
     52 H16         5.1196  -52.8953   14.7408 H         1 YY3         0.0558
     53 H17         4.6048  -51.1802   14.8828 H         1 YY3         0.0558
     54 H18         3.7229  -52.2947   13.7842 H         1 YY3         0.0558
     55 H19        -1.2604  -48.4355   15.7067 H         1 YY3         0.3704
     56 H20        -3.3059  -47.7354   16.6567 H         1 YY3         0.1765
     57 H22        -5.3898  -48.1664   18.1340 H         1 YY3         0.1630
     58 H23        -4.6871  -49.8666   18.6293 H         1 YY3         0.1630
     59 H25        -0.1760  -50.9590   18.1310 H         1 YY3         0.1984
     60 H26         2.7972  -53.3446   17.8984 H         1 YY3         0.4765
     61 H27         2.2580  -54.5590   22.1350 H         1 YY3         0.0272
     62 H28         0.9150  -52.7920   23.2450 H         1 YY3         0.1815
     63 H29         0.5640  -49.3710   19.6170 H         1 YY3         0.1308
     64 H30        -0.1730  -47.0850   19.0260 H         1 YY3         0.1390
     65 H31        -1.6110  -45.8370   20.6330 H         1 YY3         0.1421
     66 H32        -2.2300  -46.9070   22.7840 H         1 YY3         0.1436
     67 H33        -2.1605  -49.9726   25.3014 H         1 YY3         0.0599
     68 H34        -3.1911  -48.9096   24.2842 H         1 YY3         0.0599
     69 H35        -1.7107  -48.2504   25.0592 H         1 YY3         0.0599
     70 H36        -0.7340  -51.5000   23.8850 H         1 YY3         0.1701
     71 H71        -1.7762  -48.3563   11.5275 H         1 YY3         0.4522
     72 H72        -3.1305  -50.9757   18.3115 H         1 YY3         0.4880
@<TRIPOS>BOND
     1    1    2 1
     2    1   38 1
     3    1   39 1
     4    1   40 1
     5    2    4 1
     6    2    3 1
     7    2   71 1
     8    3   41 1
     9    3   42 1
    10    3   43 1
    11    4   44 1
    12    4   45 1
    13    4    5 1
    14    5    6 1
    15    5   46 1
    16    5   47 1
    17    6   12 1
    18    6    7 1
    19    7   48 1
    20    7   49 1
    21    7   50 1
    22    8   12 ar
    23    8    9 ar
    24    8   51 1
    25    9   20 ar
    26    9   10 1
    27   10   11 1
    28   11   52 1
    29   11   53 1
    30   11   54 1
    31   12   13 ar
    32   13   14 1
    33   13   19 ar
    34   14   15 am
    35   14   55 1
    36   15   17 1
    37   15   16 2
    38   16   72 1
    39   17   18 2
    40   17   56 1
    41   18   57 1
    42   18   58 1
    43   19   59 1
    44   19   20 ar
    45   20   21 1
    46   21   22 1
    47   21   60 1
    48   22   23 ar
    49   22   24 ar
    50   23   27 ar
    51   24   25 ar
    52   25   26 ar
    53   25   61 1
    54   26   62 1
    55   26   27 ar
    56   27   28 1
    57   28   37 ar
    58   28   29 ar
    59   29   34 ar
    60   29   30 ar
    61   30   63 1
    62   30   31 ar
    63   31   32 ar
    64   31   64 1
    65   32   33 ar
    66   32   65 1
    67   33   34 ar
    68   33   66 1
    69   34   35 ar
    70   35   36 1
    71   35   37 ar
    72   36   67 1
    73   36   68 1
    74   36   69 1
    75   37   70 1
@<TRIPOS>SUBSTRUCTURE
     1 YY3         1 GROUP 0 A     ****
@<TRIPOS>MOLECULE
2-(dimethylammonio)ethyl-[5-methoxy-4-[[4-(1-methylindol-3-yl)pyrimidin-2-yl]amino]-2-(prop-2-enoylamino)phenyl]-methyl-ammonium
   72    75     1     0     0
SMALL
USER_CHARGES

@<TRIPOS>ATOM
      1 C13        -3.2190  -49.7970   11.0900 C.3       1 YY3         0.0710
      2 N2         -2.4360  -49.0430   12.0780 N.4       1 YY3        -0.6751
      3 C12        -3.1940  -48.2140   13.0480 C.3       1 YY3         0.0710
      4 C11        -1.8790  -50.1420   12.9170 C.3       1 YY3         0.0775
      5 C10        -0.3450  -50.2720   12.7500 C.3       1 YY3         0.0824
      6 N1          0.2540  -49.4220   13.8270 N.4       1 YY3        -0.5120
      7 C28         1.2860  -48.4860   13.3050 C.3       1 YY3         0.0778
      8 C3          1.8270  -50.9880   14.7920 C.ar      1 YY3        -0.1163
      9 C4          2.2570  -51.7560   15.8830 C.ar      1 YY3         0.1025
     10 O1          3.3840  -52.5630   15.7970 O.3       1 YY3        -0.3187
     11 C14         4.2560  -52.2140   14.7430 C.3       1 YY3         0.1103
     12 C2          0.6890  -50.2020   14.9230 C.ar      1 YY3        -0.2046
     13 C1         -0.0870  -50.1800   16.1140 C.ar      1 YY3         0.1795
     14 N          -1.1890  -49.3830   16.2610 N.am      1 YY3        -0.5043
     15 C7         -2.2310  -49.6780   17.0600 C.2       1 YY3         0.6824
     16 O          -2.2740  -50.7450   17.6610 O.2       1 YY3        -0.5267
     17 C8         -3.3970  -48.6770   17.2180 C.2       1 YY3        -0.2867
     18 C9         -4.5960  -48.9250   18.0680 C.2       1 YY3        -0.0552
     19 C6          0.3770  -50.9640   17.2040 C.ar      1 YY3        -0.2236
     20 C5          1.5390  -51.7450   17.1020 C.ar      1 YY3         0.2748
     21 N3          2.0390  -52.5820   18.1300 N.pl3     1 YY3        -0.7147
     22 C15         1.6980  -52.5930   19.4850 C.ar      1 YY3         0.8452
     23 N5          0.9690  -51.6510   20.0690 N.ar      1 YY3        -0.7211
     24 N4          2.1650  -53.6150   20.2090 N.ar      1 YY3        -0.7399
     25 C16         1.8870  -53.7180   21.5680 C.ar      1 YY3         0.4524
     26 C17         1.1370  -52.7430   22.1890 C.ar      1 YY3        -0.3802
     27 C18         0.6750  -51.6860   21.3960 C.ar      1 YY3         0.6028
     28 C19        -0.1460  -50.6020   22.0120 C.ar      1 YY3        -0.2728
     29 C26        -0.4110  -49.3940   21.4760 C.ar      1 YY3        -0.0491
     30 C25        -0.0560  -48.8180   20.3070 C.ar      1 YY3        -0.0862
     31 C24        -0.4670  -47.5300   19.9650 C.ar      1 YY3        -0.1421
     32 C23        -1.2660  -46.8340   20.8660 C.ar      1 YY3        -0.1087
     33 C22        -1.6160  -47.4370   22.0710 C.ar      1 YY3        -0.1250
     34 C21        -1.1720  -48.7260   22.3530 C.ar      1 YY3         0.0691
     35 N6         -1.3740  -49.5080   23.4040 N.pl3     1 YY3        -0.4631
     36 C27        -2.1580  -49.1370   24.5860 C.3       1 YY3         0.1960
     37 C20        -0.7510  -50.6610   23.2050 C.ar      1 YY3         0.0676
     38 H1         -3.6975  -49.0966   10.3896 H         1 YY3         0.1187
     39 H2         -3.9922  -50.3848   11.6063 H         1 YY3         0.1187
     40 H3         -2.5536  -50.4741   10.5343 H         1 YY3         0.1187
     41 H5         -2.4909  -47.7069   13.7251 H         1 YY3         0.1187
     42 H6         -3.8670  -48.8578   13.6333 H         1 YY3         0.1187
     43 H7         -3.7859  -47.4629   12.5045 H         1 YY3         0.1187
     44 H8         -2.0951  -49.9400   13.9765 H         1 YY3         0.1187
     45 H9         -2.3404  -51.0967   12.6242 H         1 YY3         0.1187
     46 H10        -0.0519  -51.3262   12.8633 H         1 YY3         0.1294
     47 H11        -0.0534  -49.9157   11.7510 H         1 YY3         0.1294
     48 H12         1.6917  -47.8880   14.1343 H         1 YY3         0.1099
     49 H13         0.8311  -47.8175   12.5592 H         1 YY3         0.1099
     50 H14         2.0981  -49.0605   12.8355 H         1 YY3         0.1099
     51 H15         2.3740  -51.0070   13.8610 H         1 YY3         0.1358
     52 H16         5.1196  -52.8953   14.7408 H         1 YY3         0.0572
     53 H17         4.6048  -51.1802   14.8828 H         1 YY3         0.0572
     54 H18         3.7229  -52.2947   13.7842 H         1 YY3         0.0572
     55 H19        -1.2604  -48.4355   15.7067 H         1 YY3         0.2850
     56 H20        -3.3059  -47.7354   16.6567 H         1 YY3         0.1258
     57 H22        -5.3898  -48.1664   18.1340 H         1 YY3         0.1535
     58 H23        -4.6871  -49.8666   18.6293 H         1 YY3         0.1535
     59 H25        -0.1760  -50.9590   18.1310 H         1 YY3         0.2113
     60 H26         2.7972  -53.3446   17.8984 H         1 YY3         0.4615
     61 H27         2.2580  -54.5590   22.1350 H         1 YY3         0.0329
     62 H28         0.9150  -52.7920   23.2450 H         1 YY3         0.1674
     63 H29         0.5640  -49.3710   19.6170 H         1 YY3         0.1371
     64 H30        -0.1730  -47.0850   19.0260 H         1 YY3         0.1340
     65 H31        -1.6110  -45.8370   20.6330 H         1 YY3         0.1427
     66 H32        -2.2300  -46.9070   22.7840 H         1 YY3         0.1424
     67 H33        -2.1605  -49.9726   25.3014 H         1 YY3         0.0629
     68 H34        -3.1911  -48.9096   24.2842 H         1 YY3         0.0629
     69 H35        -1.7107  -48.2504   25.0592 H         1 YY3         0.0629
     70 H36        -0.7340  -51.5000   23.8850 H         1 YY3         0.1722
     71 H71        -1.7762  -48.3563   11.5275 H         1 YY3         0.4766
     72 H72        -0.5287  -48.7962   14.2806 H         1 YY3         0.4346
@<TRIPOS>BOND
     1    1    2 1
     2    1   38 1
     3    1   39 1
     4    1   40 1
     5    2    4 1
     6    2    3 1
     7    2   71 1
     8    3   41 1
     9    3   42 1
    10    3   43 1
    11    4   44 1
    12    4   45 1
    13    4    5 1
    14    5    6 1
    15    5   46 1
    16    5   47 1
    17    6   12 1
    18    6    7 1
    19    6   72 1
    20    7   48 1
    21    7   49 1
    22    7   50 1
    23    8   12 ar
    24    8    9 ar
    25    8   51 1
    26    9   20 ar
    27    9   10 1
    28   10   11 1
    29   11   52 1
    30   11   53 1
    31   11   54 1
    32   12   13 ar
    33   13   14 1
    34   13   19 ar
    35   14   15 am
    36   14   55 1
    37   15   17 1
    38   15   16 2
    39   17   18 2
    40   17   56 1
    41   18   57 1
    42   18   58 1
    43   19   59 1
    44   19   20 ar
    45   20   21 1
    46   21   22 1
    47   21   60 1
    48   22   23 ar
    49   22   24 ar
    50   23   27 ar
    51   24   25 ar
    52   25   26 ar
    53   25   61 1
    54   26   62 1
    55   26   27 ar
    56   27   28 1
    57   28   37 ar
    58   28   29 ar
    59   29   34 ar
    60   29   30 ar
    61   30   63 1
    62   30   31 ar
    63   31   32 ar
    64   31   64 1
    65   32   33 ar
    66   32   65 1
    67   33   34 ar
    68   33   66 1
    69   34   35 ar
    70   35   36 1
    71   35   37 ar
    72   36   67 1
    73   36   68 1
    74   36   69 1
    75   37   70 1
@<TRIPOS>SUBSTRUCTURE
     1 YY3         1 GROUP 0 A     ****
