YY3
  CCTOOLS-0502160708

 70 73  0  0  0  0  0  0  0  0999 V2000
   -3.2190  -49.7970   11.0900 C   0  0  0  0  0
   -2.4360  -49.0430   12.0780 N   0  0  0  0  0
   -3.1940  -48.2140   13.0480 C   0  0  0  0  0
   -1.8790  -50.1420   12.9170 C   0  0  0  0  0
   -0.3450  -50.2720   12.7500 C   0  0  0  0  0
    0.2540  -49.4220   13.8270 N   0  0  0  0  0
    1.2860  -48.4860   13.3050 C   0  0  0  0  0
    1.8270  -50.9880   14.7920 C   0  0  0  0  0
    2.2570  -51.7560   15.8830 C   0  0  0  0  0
    3.3840  -52.5630   15.7970 O   0  0  0  0  0
    4.2560  -52.2140   14.7430 C   0  0  0  0  0
    0.6890  -50.2020   14.9230 C   0  0  0  0  0
   -0.0870  -50.1800   16.1140 C   0  0  0  0  0
   -1.1890  -49.3830   16.2610 N   0  0  0  0  0
   -2.2310  -49.6780   17.0600 C   0  0  0  0  0
   -2.2740  -50.7450   17.6610 O   0  0  0  0  0
   -3.3970  -48.6770   17.2180 C   0  0  0  0  0
   -4.5960  -48.9250   18.0680 C   0  0  0  0  0
    0.3770  -50.9640   17.2040 C   0  0  0  0  0
    1.5390  -51.7450   17.1020 C   0  0  0  0  0
    2.0390  -52.5820   18.1300 N   0  0  0  0  0
    1.6980  -52.5930   19.4850 C   0  0  0  0  0
    0.9690  -51.6510   20.0690 N   0  0  0  0  0
    2.1650  -53.6150   20.2090 N   0  0  0  0  0
    1.8870  -53.7180   21.5680 C   0  0  0  0  0
    1.1370  -52.7430   22.1890 C   0  0  0  0  0
    0.6750  -51.6860   21.3960 C   0  0  0  0  0
   -0.1460  -50.6020   22.0120 C   0  0  0  0  0
   -0.4110  -49.3940   21.4760 C   0  0  0  0  0
   -0.0560  -48.8180   20.3070 C   0  0  0  0  0
   -0.4670  -47.5300   19.9650 C   0  0  0  0  0
   -1.2660  -46.8340   20.8660 C   0  0  0  0  0
   -1.6160  -47.4370   22.0710 C   0  0  0  0  0
   -1.1720  -48.7260   22.3530 C   0  0  0  0  0
   -1.3740  -49.5080   23.4040 N   0  0  0  0  0
   -2.1580  -49.1370   24.5860 C   0  0  0  0  0
   -0.7510  -50.6610   23.2050 C   0  0  0  0  0
   -3.6980  -49.0970   10.3890 H   0  0  0  0  0
   -2.5540  -50.4740   10.5340 H   0  0  0  0  0
   -3.9920  -50.3850   11.6060 H   0  0  0  0  0
   -2.4910  -47.7070   13.7250 H   0  0  0  0  0
   -3.7860  -47.4630   12.5040 H   0  0  0  0  0
   -3.8670  -48.8580   13.6330 H   0  0  0  0  0
   -2.1060  -49.9340   13.9730 H   0  0  0  0  0
   -2.3510  -51.0900   12.6210 H   0  0  0  0  0
   -0.0340  -51.3200   12.8710 H   0  0  0  0  0
   -0.0350  -49.9100   11.7590 H   0  0  0  0  0
    1.6920  -47.8880   14.1340 H   0  0  0  0  0
    2.0980  -49.0610   12.8350 H   0  0  0  0  0
    0.8310  -47.8180   12.5590 H   0  0  0  0  0
    2.3740  -51.0070   13.8610 H   0  0  0  0  0
    5.1200  -52.8950   14.7400 H   0  0  0  0  0
    3.7230  -52.2950   13.7840 H   0  0  0  0  0
    4.6050  -51.1800   14.8830 H   0  0  0  0  0
   -1.2220  -48.5280   15.7430 H   0  0  0  0  0
   -3.3400  -47.7420   16.6810 H   0  0  0  0  0
   -5.3750  -48.1800   18.1330 H   0  0  0  0  0
   -4.6850  -49.8500   18.6190 H   0  0  0  0  0
   -0.1760  -50.9590   18.1310 H   0  0  0  0  0
    2.7260  -53.2530   17.8490 H   0  0  0  0  0
    2.2580  -54.5590   22.1350 H   0  0  0  0  0
    0.9150  -52.7920   23.2450 H   0  0  0  0  0
    0.5640  -49.3710   19.6170 H   0  0  0  0  0
   -0.1730  -47.0850   19.0260 H   0  0  0  0  0
   -1.6110  -45.8370   20.6330 H   0  0  0  0  0
   -2.2300  -46.9070   22.7840 H   0  0  0  0  0
   -2.1610  -49.9720   25.3020 H   0  0  0  0  0
   -1.7110  -48.2500   25.0590 H   0  0  0  0  0
   -3.1910  -48.9100   24.2840 H   0  0  0  0  0
   -0.7340  -51.5000   23.8850 H   0  0  0  0  0
  1  2  1  0  0  0
  1 38  1  0  0  0
  1 39  1  0  0  0
  1 40  1  0  0  0
  2  4  1  0  0  0
  2  3  1  0  0  0
  3 41  1  0  0  0
  3 42  1  0  0  0
  3 43  1  0  0  0
  4 44  1  0  0  0
  4 45  1  0  0  0
  5  4  1  0  0  0
  5  6  1  0  0  0
  5 46  1  0  0  0
  5 47  1  0  0  0
  6 12  1  0  0  0
  7  6  1  0  0  0
  7 48  1  0  0  0
  7 49  1  0  0  0
  7 50  1  0  0  0
  8 12  2  0  0  0
  8  9  1  0  0  0
  8 51  1  0  0  0
  9 20  2  0  0  0
 10  9  1  0  0  0
 11 10  1  0  0  0
 11 52  1  0  0  0
 11 53  1  0  0  0
 11 54  1  0  0  0
 12 13  1  0  0  0
 13 14  1  0  0  0
 13 19  2  0  0  0
 14 15  1  0  0  0
 14 55  1  0  0  0
 15 17  1  0  0  0
 15 16  2  0  0  0
 17 18  2  0  0  0
 17 56  1  0  0  0
 18 57  1  0  0  0
 18 58  1  0  0  0
 19 59  1  0  0  0
 20 19  1  0  0  0
 20 21  1  0  0  0
 21 22  1  0  0  0
 21 60  1  0  0  0
 22 23  2  0  0  0
 22 24  1  0  0  0
 23 27  1  0  0  0
 24 25  2  0  0  0
 25 26  1  0  0  0
 25 61  1  0  0  0
 26 62  1  0  0  0
 27 28  1  0  0  0
 27 26  2  0  0  0
 28 37  2  0  0  0
 29 28  1  0  0  0
 29 34  2  0  0  0
 30 29  1  0  0  0
 30 63  1  0  0  0
 31 30  2  0  0  0
 31 32  1  0  0  0
 31 64  1  0  0  0
 32 33  2  0  0  0
 32 65  1  0  0  0
 33 34  1  0  0  0
 33 66  1  0  0  0
 34 35  1  0  0  0
 35 36  1  0  0  0
 36 67  1  0  0  0
 36 68  1  0  0  0
 36 69  1  0  0  0
 37 35  1  0  0  0
 37 70  1  0  0  0
M  END
$$$$
