@<TRIPOS>MOLECULE
~{N}-(3-chloro-4-fluoro-phenyl)-7-methoxy-6-(3-morpholinopropoxy)quinazolin-4-amine
   55    58     0     0     0
SMALL
USER_CHARGES

@<TRIPOS>ATOM
      1 C1         -0.1002   -2.1051    5.6392 C.3       1 <0>         0.1190
      2 O1          1.1895   -1.9793    5.0516 O.3       1 <0>        -0.3510
      3 C2          1.5743   -2.9699    4.1989 C.ar      1 <0>         0.0948
      4 C3          2.2530   -4.0830    4.7036 C.ar      1 <0>        -0.1815
      5 C4          2.6675   -5.1220    3.8739 C.ar      1 <0>         0.4331
      6 C5          2.3820   -5.0193    2.5026 C.ar      1 <0>        -0.2852
      7 C6          1.7000   -3.9033    1.9874 C.ar      1 <0>        -0.1129
      8 C7          1.2972   -2.8797    2.8394 C.ar      1 <0>         0.0885
      9 O2          0.6330   -1.7950    2.3306 O.3       1 <0>        -0.3429
     10 C8          1.3179   -1.0276    1.3495 C.3       1 <0>         0.1312
     11 C9          0.8517    0.4200    1.4459 C.3       1 <0>        -0.0921
     12 C10         1.1265    1.0393    2.8099 C.3       1 <0>         0.1801
     13 N1          2.5492    1.0487    3.1440 N.3       1 <0>        -0.7370
     14 C11         3.2453    2.1290    2.4314 C.3       1 <0>         0.1366
     15 C12         4.7249    2.1260    2.8050 C.3       1 <0>         0.1276
     16 O3          4.8817    2.2782    4.2162 O.3       1 <0>        -0.4167
     17 C13         4.2352    1.2145    4.9163 C.3       1 <0>         0.1276
     18 C14         2.7439    1.1944    4.5933 C.3       1 <0>         0.1366
     19 C15         2.8117   -6.0765    1.7055 C.ar      1 <0>         0.6931
     20 N2          3.4661   -7.1548    2.1764 N.ar      1 <0>        -0.7520
     21 C16         3.6829   -7.1434    3.5014 C.ar      1 <0>         0.6677
     22 N3          3.3190   -6.1849    4.3773 N.ar      1 <0>        -0.7049
     23 N4          2.5593   -6.0433    0.3114 N.pl3     1 <0>        -0.7196
     24 C17         2.3463   -7.0562   -0.6370 C.ar      1 <0>         0.1164
     25 C18         2.7276   -6.8596   -1.9643 C.ar      1 <0>        -0.0783
     26 C19         2.5166   -7.8660   -2.9068 C.ar      1 <0>        -0.1509
     27 C20         1.9243   -9.0688   -2.5222 C.ar      1 <0>         0.1288
     28 C21         1.5430   -9.2653   -1.1948 C.ar      1 <0>        -0.0100
     29 C22         1.7539   -8.2590   -0.2523 C.ar      1 <0>        -0.1426
     30 Cl1         0.8095  -10.7469   -0.7144 Cl        1 <0>        -0.0646
     31 F1          1.7269  -10.0261   -3.4399 F         1 <0>        -0.1240
     32 H1         -0.2866   -1.2469    6.3016 H         1 <0>         0.0460
     33 H2         -0.1478   -3.0361    6.2231 H         1 <0>         0.0460
     34 H3         -0.8632   -2.1296    4.8472 H         1 <0>         0.0460
     35 H4          2.4609   -4.1359    5.7713 H         1 <0>         0.1708
     36 H5          1.4750   -3.8159    0.9270 H         1 <0>         0.1456
     37 H6          2.4014   -1.0834    1.5310 H         1 <0>         0.0505
     38 H7          1.0927   -1.4262    0.3493 H         1 <0>         0.0505
     39 H8          1.3752    1.0248    0.6908 H         1 <0>         0.0611
     40 H9         -0.2326    0.4687    1.2673 H         1 <0>         0.0611
     41 H10         0.7698    2.0798    2.8187 H         1 <0>         0.0339
     42 H11         0.6002    0.4646    3.5863 H         1 <0>         0.0339
     43 H12         3.1440    1.9774    1.3466 H         1 <0>         0.0403
     44 H13         2.8022    3.0967    2.7094 H         1 <0>         0.0403
     45 H14         5.1795    1.1737    2.4945 H         1 <0>         0.0540
     46 H15         5.2333    2.9582    2.2960 H         1 <0>         0.0540
     47 H16         4.6798    0.2543    4.6159 H         1 <0>         0.0540
     48 H17         4.3653    1.3559    5.9994 H         1 <0>         0.0540
     49 H18         2.2862    2.1356    4.9319 H         1 <0>         0.0403
     50 H19         2.2709    0.3486    5.1137 H         1 <0>         0.0403
     51 H20         4.2073   -7.9970    3.9134 H         1 <0>         0.0561
     52 H21         2.5021   -5.0788   -0.2144 H         1 <0>         0.4266
     53 H22         3.1897   -5.9261   -2.2751 H         1 <0>         0.1697
     54 H23         2.8147   -7.7129   -3.9398 H         1 <0>         0.1581
     55 H24         1.4580   -8.4091    0.7838 H         1 <0>         0.1515
@<TRIPOS>BOND
     1    1    2 1
     2    1   32 1
     3    1   33 1
     4    1   34 1
     5    2    3 1
     6    3    8 ar
     7    3    4 ar
     8    4    5 ar
     9    4   35 1
    10    5   22 ar
    11    5    6 ar
    12    6    7 ar
    13    6   19 ar
    14    7    8 ar
    15    7   36 1
    16    8    9 1
    17    9   10 1
    18   10   11 1
    19   10   37 1
    20   10   38 1
    21   11   12 1
    22   11   39 1
    23   11   40 1
    24   12   13 1
    25   12   41 1
    26   12   42 1
    27   13   18 1
    28   13   14 1
    29   14   15 1
    30   14   43 1
    31   14   44 1
    32   15   16 1
    33   15   45 1
    34   15   46 1
    35   16   17 1
    36   17   18 1
    37   17   47 1
    38   17   48 1
    39   18   49 1
    40   18   50 1
    41   19   20 ar
    42   19   23 1
    43   20   21 ar
    44   21   22 ar
    45   21   51 1
    46   23   24 1
    47   23   52 1
    48   24   29 ar
    49   24   25 ar
    50   25   26 ar
    51   25   53 1
    52   26   27 ar
    53   26   54 1
    54   27   28 ar
    55   27   31 1
    56   28   29 ar
    57   28   30 1
    58   29   55 1
@<TRIPOS>MOLECULE
~{N}-(3-chloro-4-fluoro-phenyl)-7-methoxy-6-(3-morpholin-4-ium-4-ylpropoxy)quinazolin-4-amine
   56    59     0     0     0
SMALL
USER_CHARGES

@<TRIPOS>ATOM
      1 C1         -0.1002   -2.1051    5.6392 C.3       1 <0>         0.1165
      2 O1          1.1895   -1.9793    5.0516 O.3       1 <0>        -0.3596
      3 C2          1.5743   -2.9699    4.1989 C.ar      1 <0>         0.0931
      4 C3          2.2530   -4.0830    4.7036 C.ar      1 <0>        -0.1704
      5 C4          2.6675   -5.1220    3.8739 C.ar      1 <0>         0.4475
      6 C5          2.3820   -5.0193    2.5026 C.ar      1 <0>        -0.2963
      7 C6          1.7000   -3.9033    1.9874 C.ar      1 <0>        -0.0916
      8 C7          1.2972   -2.8797    2.8394 C.ar      1 <0>         0.0508
      9 O2          0.6330   -1.7950    2.3306 O.3       1 <0>        -0.3369
     10 C8          1.3179   -1.0276    1.3495 C.3       1 <0>         0.1362
     11 C9          0.8517    0.4200    1.4459 C.3       1 <0>        -0.1294
     12 C10         1.1265    1.0393    2.8099 C.3       1 <0>         0.1130
     13 N1          2.5492    1.0487    3.1440 N.4       1 <0>        -0.6845
     14 C11         3.2453    2.1290    2.4314 C.3       1 <0>         0.0688
     15 C12         4.7249    2.1260    2.8050 C.3       1 <0>         0.0971
     16 O3          4.8817    2.2782    4.2162 O.3       1 <0>        -0.3699
     17 C13         4.2352    1.2145    4.9163 C.3       1 <0>         0.0971
     18 C14         2.7439    1.1944    4.5933 C.3       1 <0>         0.0688
     19 C15         2.8117   -6.0765    1.7055 C.ar      1 <0>         0.6914
     20 N2          3.4661   -7.1548    2.1764 N.ar      1 <0>        -0.7361
     21 C16         3.6829   -7.1434    3.5014 C.ar      1 <0>         0.6836
     22 N3          3.3190   -6.1849    4.3773 N.ar      1 <0>        -0.7020
     23 N4          2.5593   -6.0433    0.3114 N.pl3     1 <0>        -0.7050
     24 C17         2.3463   -7.0562   -0.6370 C.ar      1 <0>         0.0961
     25 C18         2.7276   -6.8596   -1.9643 C.ar      1 <0>        -0.0720
     26 C19         2.5166   -7.8660   -2.9068 C.ar      1 <0>        -0.1481
     27 C20         1.9243   -9.0688   -2.5222 C.ar      1 <0>         0.1407
     28 C21         1.5430   -9.2653   -1.1948 C.ar      1 <0>        -0.0133
     29 C22         1.7539   -8.2590   -0.2523 C.ar      1 <0>        -0.1441
     30 Cl1         0.8095  -10.7469   -0.7144 Cl        1 <0>        -0.0557
     31 F1          1.7269  -10.0261   -3.4399 F         1 <0>        -0.1160
     32 H1         -0.2866   -1.2469    6.3016 H         1 <0>         0.0497
     33 H2         -0.1478   -3.0361    6.2231 H         1 <0>         0.0497
     34 H3         -0.8632   -2.1296    4.8472 H         1 <0>         0.0497
     35 H4          2.4609   -4.1359    5.7713 H         1 <0>         0.1782
     36 H5          1.4750   -3.8159    0.9270 H         1 <0>         0.1398
     37 H6          2.4014   -1.0834    1.5310 H         1 <0>         0.0668
     38 H7          1.0927   -1.4262    0.3493 H         1 <0>         0.0668
     39 H8          1.3752    1.0248    0.6908 H         1 <0>         0.0759
     40 H9         -0.2326    0.4687    1.2673 H         1 <0>         0.0759
     41 H10         0.7698    2.0798    2.8187 H         1 <0>         0.1085
     42 H11         0.6002    0.4646    3.5863 H         1 <0>         0.1085
     43 H12         3.1440    1.9774    1.3466 H         1 <0>         0.1152
     44 H13         2.8022    3.0967    2.7094 H         1 <0>         0.1152
     45 H14         5.1795    1.1737    2.4945 H         1 <0>         0.0984
     46 H15         5.2333    2.9582    2.2960 H         1 <0>         0.0984
     47 H16         4.6798    0.2543    4.6159 H         1 <0>         0.0984
     48 H17         4.3653    1.3559    5.9994 H         1 <0>         0.0984
     49 H18         2.2862    2.1356    4.9319 H         1 <0>         0.1152
     50 H19         2.2709    0.3486    5.1137 H         1 <0>         0.1152
     51 H20         4.2073   -7.9970    3.9134 H         1 <0>         0.0671
     52 H21         2.5021   -5.0788   -0.2144 H         1 <0>         0.4143
     53 H22         3.1897   -5.9261   -2.2751 H         1 <0>         0.1701
     54 H23         2.8147   -7.7129   -3.9398 H         1 <0>         0.1653
     55 H24         1.4580   -8.4091    0.7838 H         1 <0>         0.1443
     56 H25         2.9709    0.0842    2.8248 H         1 <0>         0.4451
@<TRIPOS>BOND
     1    1    2 1
     2    1   32 1
     3    1   33 1
     4    1   34 1
     5    2    3 1
     6    3    8 ar
     7    3    4 ar
     8    4    5 ar
     9    4   35 1
    10    5   22 ar
    11    5    6 ar
    12    6    7 ar
    13    6   19 ar
    14    7    8 ar
    15    7   36 1
    16    8    9 1
    17    9   10 1
    18   10   11 1
    19   10   37 1
    20   10   38 1
    21   11   12 1
    22   11   39 1
    23   11   40 1
    24   12   13 1
    25   12   41 1
    26   12   42 1
    27   13   18 1
    28   13   14 1
    29   13   56 1
    30   14   15 1
    31   14   43 1
    32   14   44 1
    33   15   16 1
    34   15   45 1
    35   15   46 1
    36   16   17 1
    37   17   18 1
    38   17   47 1
    39   17   48 1
    40   18   49 1
    41   18   50 1
    42   19   20 ar
    43   19   23 1
    44   20   21 ar
    45   21   22 ar
    46   21   51 1
    47   23   24 1
    48   23   52 1
    49   24   29 ar
    50   24   25 ar
    51   25   26 ar
    52   25   53 1
    53   26   27 ar
    54   26   54 1
    55   27   28 ar
    56   27   31 1
    57   28   29 ar
    58   28   30 1
    59   29   55 1
@<TRIPOS>MOLECULE
~{N}-(3-chloro-4-fluoro-phenyl)-7-methoxy-6-(3-morpholinopropoxy)quinazolin-1-ium-4-amine
   56    59     0     0     0
SMALL
USER_CHARGES

@<TRIPOS>ATOM
      1 C1         -0.1002   -2.1051    5.6392 C.3       1 <0>         0.1184
      2 O1          1.1895   -1.9793    5.0516 O.3       1 <0>        -0.3268
      3 C2          1.5743   -2.9699    4.1989 C.ar      1 <0>         0.1864
      4 C3          2.2530   -4.0830    4.7036 C.ar      1 <0>        -0.1745
      5 C4          2.6675   -5.1220    3.8739 C.ar      1 <0>         0.0573
      6 C5          2.3820   -5.0193    2.5026 C.ar      1 <0>        -0.2183
      7 C6          1.7000   -3.9033    1.9874 C.ar      1 <0>        -0.1292
      8 C7          1.2972   -2.8797    2.8394 C.ar      1 <0>         0.1193
      9 O2          0.6330   -1.7950    2.3306 O.3       1 <0>        -0.3141
     10 C8          1.3179   -1.0276    1.3495 C.3       1 <0>         0.1305
     11 C9          0.8517    0.4200    1.4459 C.3       1 <0>        -0.0938
     12 C10         1.1265    1.0393    2.8099 C.3       1 <0>         0.1847
     13 N1          2.5492    1.0487    3.1440 N.3       1 <0>        -0.7385
     14 C11         3.2453    2.1290    2.4314 C.3       1 <0>         0.1369
     15 C12         4.7249    2.1260    2.8050 C.3       1 <0>         0.1267
     16 O3          4.8817    2.2782    4.2162 O.3       1 <0>        -0.4085
     17 C13         4.2352    1.2145    4.9163 C.3       1 <0>         0.1267
     18 C14         2.7439    1.1944    4.5933 C.3       1 <0>         0.1369
     19 C15         2.8117   -6.0765    1.7055 C.ar      1 <0>         0.7772
     20 N2          3.4661   -7.1548    2.1764 N.ar      1 <0>        -0.7394
     21 C16         3.6829   -7.1434    3.5014 C.ar      1 <0>         0.6287
     22 N3          3.3190   -6.1849    4.3773 N.ar      1 <0>        -0.3270
     23 N4          2.5593   -6.0433    0.3114 N.pl3     1 <0>        -0.6526
     24 C17         2.3463   -7.0562   -0.6370 C.ar      1 <0>         0.0710
     25 C18         2.7276   -6.8596   -1.9643 C.ar      1 <0>        -0.0856
     26 C19         2.5166   -7.8660   -2.9068 C.ar      1 <0>        -0.1426
     27 C20         1.9243   -9.0688   -2.5222 C.ar      1 <0>         0.1686
     28 C21         1.5430   -9.2653   -1.1948 C.ar      1 <0>        -0.0113
     29 C22         1.7539   -8.2590   -0.2523 C.ar      1 <0>        -0.1058
     30 Cl1         0.8095  -10.7469   -0.7144 Cl        1 <0>        -0.0178
     31 F1          1.7269  -10.0261   -3.4399 F         1 <0>        -0.0984
     32 H1         -0.2866   -1.2469    6.3016 H         1 <0>         0.0608
     33 H2         -0.1478   -3.0361    6.2231 H         1 <0>         0.0608
     34 H3         -0.8632   -2.1296    4.8472 H         1 <0>         0.0608
     35 H4          2.4609   -4.1359    5.7713 H         1 <0>         0.1797
     36 H5          1.4750   -3.8159    0.9270 H         1 <0>         0.1573
     37 H6          2.4014   -1.0834    1.5310 H         1 <0>         0.0430
     38 H7          1.0927   -1.4262    0.3493 H         1 <0>         0.0430
     39 H8          1.3752    1.0248    0.6908 H         1 <0>         0.0743
     40 H9         -0.2326    0.4687    1.2673 H         1 <0>         0.0743
     41 H10         0.7698    2.0798    2.8187 H         1 <0>         0.0311
     42 H11         0.6002    0.4646    3.5863 H         1 <0>         0.0311
     43 H12         3.1440    1.9774    1.3466 H         1 <0>         0.0401
     44 H13         2.8022    3.0967    2.7094 H         1 <0>         0.0401
     45 H14         5.1795    1.1737    2.4945 H         1 <0>         0.0592
     46 H15         5.2333    2.9582    2.2960 H         1 <0>         0.0592
     47 H16         4.6798    0.2543    4.6159 H         1 <0>         0.0592
     48 H17         4.3653    1.3559    5.9994 H         1 <0>         0.0592
     49 H18         2.2862    2.1356    4.9319 H         1 <0>         0.0401
     50 H19         2.2709    0.3486    5.1137 H         1 <0>         0.0401
     51 H20         4.2073   -7.9970    3.9134 H         1 <0>         0.0966
     52 H21         2.5021   -5.0788   -0.2144 H         1 <0>         0.4715
     53 H22         3.1897   -5.9261   -2.2751 H         1 <0>         0.1555
     54 H23         2.8147   -7.7129   -3.9398 H         1 <0>         0.1763
     55 H24         1.4580   -8.4091    0.7838 H         1 <0>         0.1639
     56 H25         3.5300   -6.2406    5.4554 H         1 <0>         0.3373
@<TRIPOS>BOND
     1    1    2 1
     2    1   32 1
     3    1   33 1
     4    1   34 1
     5    2    3 1
     6    3    8 ar
     7    3    4 ar
     8    4    5 ar
     9    4   35 1
    10    5   22 ar
    11    5    6 ar
    12    6    7 ar
    13    6   19 ar
    14    7    8 ar
    15    7   36 1
    16    8    9 1
    17    9   10 1
    18   10   11 1
    19   10   37 1
    20   10   38 1
    21   11   12 1
    22   11   39 1
    23   11   40 1
    24   12   13 1
    25   12   41 1
    26   12   42 1
    27   13   18 1
    28   13   14 1
    29   14   15 1
    30   14   43 1
    31   14   44 1
    32   15   16 1
    33   15   45 1
    34   15   46 1
    35   16   17 1
    36   17   18 1
    37   17   47 1
    38   17   48 1
    39   18   49 1
    40   18   50 1
    41   19   20 ar
    42   19   23 1
    43   20   21 ar
    44   21   22 ar
    45   21   51 1
    46   22   56 1
    47   23   24 1
    48   23   52 1
    49   24   29 ar
    50   24   25 ar
    51   25   26 ar
    52   25   53 1
    53   26   27 ar
    54   26   54 1
    55   27   28 ar
    56   27   31 1
    57   28   29 ar
    58   28   30 1
    59   29   55 1
@<TRIPOS>MOLECULE
~{N}-(3-chloro-4-fluoro-phenyl)-7-methoxy-6-(3-morpholin-4-ium-4-ylpropoxy)quinazolin-1-ium-4-amine
   57    60     0     0     0
SMALL
USER_CHARGES

@<TRIPOS>ATOM
      1 C1         -0.1002   -2.1051    5.6392 C.3       1 <0>         0.1191
      2 O1          1.1895   -1.9793    5.0516 O.3       1 <0>        -0.3397
      3 C2          1.5743   -2.9699    4.1989 C.ar      1 <0>         0.1934
      4 C3          2.2530   -4.0830    4.7036 C.ar      1 <0>        -0.1679
      5 C4          2.6675   -5.1220    3.8739 C.ar      1 <0>         0.0759
      6 C5          2.3820   -5.0193    2.5026 C.ar      1 <0>        -0.2250
      7 C6          1.7000   -3.9033    1.9874 C.ar      1 <0>        -0.1075
      8 C7          1.2972   -2.8797    2.8394 C.ar      1 <0>         0.0802
      9 O2          0.6330   -1.7950    2.3306 O.3       1 <0>        -0.3135
     10 C8          1.3179   -1.0276    1.3495 C.3       1 <0>         0.1336
     11 C9          0.8517    0.4200    1.4459 C.3       1 <0>        -0.1242
     12 C10         1.1265    1.0393    2.8099 C.3       1 <0>         0.1100
     13 N1          2.5492    1.0487    3.1440 N.4       1 <0>        -0.6860
     14 C11         3.2453    2.1290    2.4314 C.3       1 <0>         0.0703
     15 C12         4.7249    2.1260    2.8050 C.3       1 <0>         0.0971
     16 O3          4.8817    2.2782    4.2162 O.3       1 <0>        -0.3633
     17 C13         4.2352    1.2145    4.9163 C.3       1 <0>         0.0971
     18 C14         2.7439    1.1944    4.5933 C.3       1 <0>         0.0703
     19 C15         2.8117   -6.0765    1.7055 C.ar      1 <0>         0.7728
     20 N2          3.4661   -7.1548    2.1764 N.ar      1 <0>        -0.7305
     21 C16         3.6829   -7.1434    3.5014 C.ar      1 <0>         0.6408
     22 N3          3.3190   -6.1849    4.3773 N.ar      1 <0>        -0.3352
     23 N4          2.5593   -6.0433    0.3114 N.pl3     1 <0>        -0.6358
     24 C17         2.3463   -7.0562   -0.6370 C.ar      1 <0>         0.0545
     25 C18         2.7276   -6.8596   -1.9643 C.ar      1 <0>        -0.0770
     26 C19         2.5166   -7.8660   -2.9068 C.ar      1 <0>        -0.1429
     27 C20         1.9243   -9.0688   -2.5222 C.ar      1 <0>         0.1840
     28 C21         1.5430   -9.2653   -1.1948 C.ar      1 <0>        -0.0146
     29 C22         1.7539   -8.2590   -0.2523 C.ar      1 <0>        -0.1049
     30 Cl1         0.8095  -10.7469   -0.7144 Cl        1 <0>        -0.0114
     31 F1          1.7269  -10.0261   -3.4399 F         1 <0>        -0.0877
     32 H1         -0.2866   -1.2469    6.3016 H         1 <0>         0.0641
     33 H2         -0.1478   -3.0361    6.2231 H         1 <0>         0.0641
     34 H3         -0.8632   -2.1296    4.8472 H         1 <0>         0.0641
     35 H4          2.4609   -4.1359    5.7713 H         1 <0>         0.1875
     36 H5          1.4750   -3.8159    0.9270 H         1 <0>         0.1519
     37 H6          2.4014   -1.0834    1.5310 H         1 <0>         0.0567
     38 H7          1.0927   -1.4262    0.3493 H         1 <0>         0.0567
     39 H8          1.3752    1.0248    0.6908 H         1 <0>         0.0886
     40 H9         -0.2326    0.4687    1.2673 H         1 <0>         0.0886
     41 H10         0.7698    2.0798    2.8187 H         1 <0>         0.1059
     42 H11         0.6002    0.4646    3.5863 H         1 <0>         0.1059
     43 H12         3.1440    1.9774    1.3466 H         1 <0>         0.1141
     44 H13         2.8022    3.0967    2.7094 H         1 <0>         0.1141
     45 H14         5.1795    1.1737    2.4945 H         1 <0>         0.1038
     46 H15         5.2333    2.9582    2.2960 H         1 <0>         0.1038
     47 H16         4.6798    0.2543    4.6159 H         1 <0>         0.1038
     48 H17         4.3653    1.3559    5.9994 H         1 <0>         0.1038
     49 H18         2.2862    2.1356    4.9319 H         1 <0>         0.1141
     50 H19         2.2709    0.3486    5.1137 H         1 <0>         0.1141
     51 H20         4.2073   -7.9970    3.9134 H         1 <0>         0.1075
     52 H21         2.5021   -5.0788   -0.2144 H         1 <0>         0.4646
     53 H22         3.1897   -5.9261   -2.2751 H         1 <0>         0.1570
     54 H23         2.8147   -7.7129   -3.9398 H         1 <0>         0.1828
     55 H24         1.4580   -8.4091    0.7838 H         1 <0>         0.1595
     56 H25         2.9709    0.0842    2.8248 H         1 <0>         0.4476
     57 H26         3.5300   -6.2406    5.4554 H         1 <0>         0.3435
@<TRIPOS>BOND
     1    1    2 1
     2    1   32 1
     3    1   33 1
     4    1   34 1
     5    2    3 1
     6    3    8 ar
     7    3    4 ar
     8    4    5 ar
     9    4   35 1
    10    5   22 ar
    11    5    6 ar
    12    6    7 ar
    13    6   19 ar
    14    7    8 ar
    15    7   36 1
    16    8    9 1
    17    9   10 1
    18   10   11 1
    19   10   37 1
    20   10   38 1
    21   11   12 1
    22   11   39 1
    23   11   40 1
    24   12   13 1
    25   12   41 1
    26   12   42 1
    27   13   18 1
    28   13   14 1
    29   13   56 1
    30   14   15 1
    31   14   43 1
    32   14   44 1
    33   15   16 1
    34   15   45 1
    35   15   46 1
    36   16   17 1
    37   17   18 1
    38   17   47 1
    39   17   48 1
    40   18   49 1
    41   18   50 1
    42   19   20 ar
    43   19   23 1
    44   20   21 ar
    45   21   22 ar
    46   21   51 1
    47   22   57 1
    48   23   24 1
    49   23   52 1
    50   24   29 ar
    51   24   25 ar
    52   25   26 ar
    53   25   53 1
    54   26   27 ar
    55   26   54 1
    56   27   28 ar
    57   27   31 1
    58   28   29 ar
    59   28   30 1
    60   29   55 1
