@<TRIPOS>MOLECULE
~{N}-(3-chloro-4-fluoro-phenyl)-7-methoxy-6-(3-morpholinopropoxy)quinazolin-4-amine
55   58    1
SMALL
USER_CHARGES


@<TRIPOS>ATOM
      1 C1         -0.1002   -2.1051    5.6392 C.3       1 GEF         0.1189 
      2 O1          1.1895   -1.9793    5.0516 O.3       1 GEF        -0.3507 
      3 C2          1.5743   -2.9699    4.1989 C.ar      1 GEF         0.0948 
      4 C3          2.2530   -4.0830    4.7036 C.ar      1 GEF        -0.1819 
      5 C4          2.6675   -5.1220    3.8739 C.ar      1 GEF         0.4344 
      6 C5          2.3820   -5.0193    2.5026 C.ar      1 GEF        -0.2848 
      7 C6          1.7000   -3.9033    1.9874 C.ar      1 GEF        -0.1134 
      8 C7          1.2972   -2.8797    2.8394 C.ar      1 GEF         0.0884 
      9 O2          0.6330   -1.7950    2.3306 O.3       1 GEF        -0.3429 
     10 C8          1.3179   -1.0276    1.3495 C.3       1 GEF         0.1307 
     11 C9          0.8517    0.4200    1.4459 C.3       1 GEF        -0.0914 
     12 C10         1.1265    1.0393    2.8099 C.3       1 GEF         0.1794 
     13 N1          2.5492    1.0487    3.1440 N.3       1 GEF        -0.7375 
     14 C11         3.2453    2.1290    2.4314 C.3       1 GEF         0.1366 
     15 C12         4.7249    2.1260    2.8050 C.3       1 GEF         0.1273 
     16 O3          4.8817    2.2782    4.2162 O.3       1 GEF        -0.4161 
     17 C13         4.2352    1.2145    4.9163 C.3       1 GEF         0.1273 
     18 C14         2.7439    1.1944    4.5933 C.3       1 GEF         0.1366 
     19 C15         2.8117   -6.0765    1.7055 C.ar      1 GEF         0.6923 
     20 N2          3.4661   -7.1548    2.1764 N.ar      1 GEF        -0.7530 
     21 C16         3.6829   -7.1434    3.5014 C.ar      1 GEF         0.6683 
     22 N3          3.3190   -6.1849    4.3773 N.ar      1 GEF        -0.7059 
     23 N4          2.5593   -6.0433    0.3114 N.pl3     1 GEF        -0.7159 
     24 C17         2.3463   -7.0562   -0.6370 C.ar      1 GEF         0.1140 
     25 C18         2.7276   -6.8596   -1.9643 C.ar      1 GEF        -0.0777 
     26 C19         2.5166   -7.8660   -2.9068 C.ar      1 GEF        -0.1507 
     27 C20         1.9243   -9.0688   -2.5222 C.ar      1 GEF         0.1281 
     28 C21         1.5430   -9.2653   -1.1948 C.ar      1 GEF        -0.0090 
     29 C22         1.7539   -8.2590   -0.2523 C.ar      1 GEF        -0.1434 
     30 Cl1         0.8095  -10.7469   -0.7144 Cl        1 GEF        -0.0640 
     31 F1          1.7269  -10.0261   -3.4399 F         1 GEF        -0.1244 
     32 H1         -0.2866   -1.2469    6.3016 H         1 GEF         0.0461 
     33 H2         -0.1478   -3.0361    6.2231 H         1 GEF         0.0461 
     34 H3         -0.8632   -2.1296    4.8472 H         1 GEF         0.0461 
     35 H4          2.4609   -4.1359    5.7713 H         1 GEF         0.1701 
     36 H5          1.4750   -3.8159    0.9270 H         1 GEF         0.1458 
     37 H6          2.4014   -1.0834    1.5310 H         1 GEF         0.0505 
     38 H7          1.0927   -1.4262    0.3493 H         1 GEF         0.0505 
     39 H8          1.3752    1.0248    0.6908 H         1 GEF         0.0614 
     40 H9         -0.2326    0.4687    1.2673 H         1 GEF         0.0614 
     41 H10         0.7698    2.0798    2.8187 H         1 GEF         0.0346 
     42 H11         0.6002    0.4646    3.5863 H         1 GEF         0.0346 
     43 H12         3.1440    1.9774    1.3466 H         1 GEF         0.0403 
     44 H13         2.8022    3.0967    2.7094 H         1 GEF         0.0403 
     45 H14         5.1795    1.1737    2.4945 H         1 GEF         0.0539 
     46 H15         5.2333    2.9582    2.2960 H         1 GEF         0.0539 
     47 H16         4.6798    0.2543    4.6159 H         1 GEF         0.0539 
     48 H17         4.3653    1.3559    5.9994 H         1 GEF         0.0539 
     49 H18         2.2862    2.1356    4.9319 H         1 GEF         0.0403 
     50 H19         2.2709    0.3486    5.1137 H         1 GEF         0.0403 
     51 H20         4.2073   -7.9970    3.9134 H         1 GEF         0.0570 
     52 H21         2.5021   -5.0788   -0.2144 H         1 GEF         0.4259 
     53 H22         3.1897   -5.9261   -2.2751 H         1 GEF         0.1698 
     54 H23         2.8147   -7.7129   -3.9398 H         1 GEF         0.1582 
     55 H24         1.4580   -8.4091    0.7838 H         1 GEF         0.1509 
@<TRIPOS>BOND
     1    1    2 1    
     2    1   32 1    
     3    1   33 1    
     4    1   34 1    
     5    2    3 1    
     6    3    8 ar   
     7    3    4 ar   
     8    4    5 ar   
     9    4   35 1    
    10    5   22 ar   
    11    5    6 ar   
    12    6    7 ar   
    13    6   19 ar   
    14    7    8 ar   
    15    7   36 1    
    16    8    9 1    
    17    9   10 1    
    18   10   11 1    
    19   10   37 1    
    20   10   38 1    
    21   11   12 1    
    22   11   39 1    
    23   11   40 1    
    24   12   13 1    
    25   12   41 1    
    26   12   42 1    
    27   13   18 1    
    28   13   14 1    
    29   14   15 1    
    30   14   43 1    
    31   14   44 1    
    32   15   16 1    
    33   15   45 1    
    34   15   46 1    
    35   16   17 1    
    36   17   18 1    
    37   17   47 1    
    38   17   48 1    
    39   18   49 1    
    40   18   50 1    
    41   19   20 ar   
    42   19   23 1    
    43   20   21 ar   
    44   21   22 ar   
    45   21   51 1    
    46   23   24 1    
    47   23   52 1    
    48   24   29 ar   
    49   24   25 ar   
    50   25   26 ar   
    51   25   53 1    
    52   26   27 ar   
    53   26   54 1    
    54   27   28 ar   
    55   27   31 1    
    56   28   29 ar   
    57   28   30 1    
    58   29   55 1    
@<TRIPOS>SUBSTRUCTURE
     1 GEF         1 GROUP             0       ****    0 ROOT    
@<TRIPOS>MOLECULE
~{N}-(3-chloro-4-fluoro-phenyl)-7-methoxy-6-(3-morpholinopropoxy)quinazolin-4-amine
56   59    1
SMALL
USER_CHARGES


@<TRIPOS>ATOM
      1 C1         -0.1002   -2.1051    5.6392 C.3       1 GEF         0.1189 
      2 O1          1.1895   -1.9793    5.0516 O.3       1 GEF        -0.3507 
      3 C2          1.5743   -2.9699    4.1989 C.ar      1 GEF         0.0948 
      4 C3          2.2530   -4.0830    4.7036 C.ar      1 GEF        -0.1819 
      5 C4          2.6675   -5.1220    3.8739 C.ar      1 GEF         0.4344 
      6 C5          2.3820   -5.0193    2.5026 C.ar      1 GEF        -0.2848 
      7 C6          1.7000   -3.9033    1.9874 C.ar      1 GEF        -0.1134 
      8 C7          1.2972   -2.8797    2.8394 C.ar      1 GEF         0.0884 
      9 O2          0.6330   -1.7950    2.3306 O.3       1 GEF        -0.3429 
     10 C8          1.3179   -1.0276    1.3495 C.3       1 GEF         0.1307 
     11 C9          0.8517    0.4200    1.4459 C.3       1 GEF        -0.0914 
     12 C10         1.1265    1.0393    2.8099 C.3       1 GEF         0.1794 
     13 N1          2.5492    1.0487    3.1440 N.4       1 GEF        -0.7375 
     14 C11         3.2453    2.1290    2.4314 C.3       1 GEF         0.1366 
     15 C12         4.7249    2.1260    2.8050 C.3       1 GEF         0.1273 
     16 O3          4.8817    2.2782    4.2162 O.3       1 GEF        -0.4161 
     17 C13         4.2352    1.2145    4.9163 C.3       1 GEF         0.1273 
     18 C14         2.7439    1.1944    4.5933 C.3       1 GEF         0.1366 
     19 C15         2.8117   -6.0765    1.7055 C.ar      1 GEF         0.6923 
     20 N2          3.4661   -7.1548    2.1764 N.ar      1 GEF        -0.7530 
     21 C16         3.6829   -7.1434    3.5014 C.ar      1 GEF         0.6683 
     22 N3          3.3190   -6.1849    4.3773 N.ar      1 GEF        -0.7059 
     23 N4          2.5593   -6.0433    0.3114 N.pl3     1 GEF        -0.7159 
     24 C17         2.3463   -7.0562   -0.6370 C.ar      1 GEF         0.1140 
     25 C18         2.7276   -6.8596   -1.9643 C.ar      1 GEF        -0.0777 
     26 C19         2.5166   -7.8660   -2.9068 C.ar      1 GEF        -0.1507 
     27 C20         1.9243   -9.0688   -2.5222 C.ar      1 GEF         0.1281 
     28 C21         1.5430   -9.2653   -1.1948 C.ar      1 GEF        -0.0090 
     29 C22         1.7539   -8.2590   -0.2523 C.ar      1 GEF        -0.1434 
     30 Cl1         0.8095  -10.7469   -0.7144 Cl        1 GEF        -0.0640 
     31 F1          1.7269  -10.0261   -3.4399 F         1 GEF        -0.1244 
     32 H1         -0.2866   -1.2469    6.3016 H         1 GEF         0.0461 
     33 H2         -0.1478   -3.0361    6.2231 H         1 GEF         0.0461 
     34 H3         -0.8632   -2.1296    4.8472 H         1 GEF         0.0461 
     35 H4          2.4609   -4.1359    5.7713 H         1 GEF         0.1701 
     36 H5          1.4750   -3.8159    0.9270 H         1 GEF         0.1458 
     37 H6          2.4014   -1.0834    1.5310 H         1 GEF         0.0505 
     38 H7          1.0927   -1.4262    0.3493 H         1 GEF         0.0505 
     39 H8          1.3752    1.0248    0.6908 H         1 GEF         0.0614 
     40 H9         -0.2326    0.4687    1.2673 H         1 GEF         0.0614 
     41 H10         0.7698    2.0798    2.8187 H         1 GEF         0.0346 
     42 H11         0.6002    0.4646    3.5863 H         1 GEF         0.0346 
     43 H12         3.1440    1.9774    1.3466 H         1 GEF         0.0403 
     44 H13         2.8022    3.0967    2.7094 H         1 GEF         0.0403 
     45 H14         5.1795    1.1737    2.4945 H         1 GEF         0.0539 
     46 H15         5.2333    2.9582    2.2960 H         1 GEF         0.0539 
     47 H16         4.6798    0.2543    4.6159 H         1 GEF         0.0539 
     48 H17         4.3653    1.3559    5.9994 H         1 GEF         0.0539 
     49 H18         2.2862    2.1356    4.9319 H         1 GEF         0.0403 
     50 H19         2.2709    0.3486    5.1137 H         1 GEF         0.0403 
     51 H20         4.2073   -7.9970    3.9134 H         1 GEF         0.0570 
     52 H21         2.5021   -5.0788   -0.2144 H         1 GEF         0.4259 
     53 H22         3.1897   -5.9261   -2.2751 H         1 GEF         0.1698 
     54 H23         2.8147   -7.7129   -3.9398 H         1 GEF         0.1582 
     55 H24         1.4580   -8.4091    0.7838 H         1 GEF         0.1509 
     56 H56         2.9709    0.0842    2.8248 H         1 GEF         0.0000 
@<TRIPOS>BOND
     1    1    2 1    
     2    1   32 1    
     3    1   33 1    
     4    1   34 1    
     5    2    3 1    
     6    3    8 ar   
     7    3    4 ar   
     8    4    5 ar   
     9    4   35 1    
    10    5   22 ar   
    11    5    6 ar   
    12    6    7 ar   
    13    6   19 ar   
    14    7    8 ar   
    15    7   36 1    
    16    8    9 1    
    17    9   10 1    
    18   10   11 1    
    19   10   37 1    
    20   10   38 1    
    21   11   12 1    
    22   11   39 1    
    23   11   40 1    
    24   12   13 1    
    25   12   41 1    
    26   12   42 1    
    27   13   18 1    
    28   13   14 1    
    29   13   56 1    
    30   14   15 1    
    31   14   43 1    
    32   14   44 1    
    33   15   16 1    
    34   15   45 1    
    35   15   46 1    
    36   16   17 1    
    37   17   18 1    
    38   17   47 1    
    39   17   48 1    
    40   18   49 1    
    41   18   50 1    
    42   19   20 ar   
    43   19   23 1    
    44   20   21 ar   
    45   21   22 ar   
    46   21   51 1    
    47   23   24 1    
    48   23   52 1    
    49   24   29 ar   
    50   24   25 ar   
    51   25   26 ar   
    52   25   53 1    
    53   26   27 ar   
    54   26   54 1    
    55   27   28 ar   
    56   27   31 1    
    57   28   29 ar   
    58   28   30 1    
    59   29   55 1    
@<TRIPOS>SUBSTRUCTURE
     1 GEF         1 GROUP             0       ****    0 ROOT    
@<TRIPOS>MOLECULE
~{N}-(3-chloro-4-fluoro-phenyl)-7-methoxy-6-(3-morpholinopropoxy)quinazolin-4-amine
56   59    1
SMALL
USER_CHARGES


@<TRIPOS>ATOM
      1 C1         -0.0976   -2.1021    5.6386 C.3       1 GEF         0.1189 
      2 O1          1.1923   -1.9778    5.0511 O.3       1 GEF        -0.3507 
      3 C2          1.5760   -2.9690    4.1986 C.ar      1 GEF         0.0948 
      4 C3          2.2524   -4.0833    4.7037 C.ar      1 GEF        -0.1819 
      5 C4          2.6669   -5.1223    3.8740 C.ar      1 GEF         0.4344 
      6 C5          2.3820   -5.0193    2.5026 C.ar      1 GEF        -0.2848 
      7 C6          1.7010   -3.9028    1.9872 C.ar      1 GEF        -0.1134 
      8 C7          1.2992   -2.8786    2.8391 C.ar      1 GEF         0.0884 
      9 O2          0.6360   -1.7934    2.3301 O.3       1 GEF        -0.3429 
     10 C8          1.3215   -1.0268    1.3488 C.3       1 GEF         0.1307 
     11 C9          0.8567    0.4212    1.4449 C.3       1 GEF        -0.0914 
     12 C10         1.1322    1.0405    2.8088 C.3       1 GEF         0.1794 
     13 N1          2.5549    1.0487    3.1428 N.3       1 GEF        -0.7375 
     14 C11         3.2520    2.1282    2.4299 C.3       1 GEF         0.1366 
     15 C12         4.7316    2.1239    2.8034 C.3       1 GEF         0.1273 
     16 O3          4.8886    2.2762    4.2146 O.3       1 GEF        -0.4161 
     17 C13         4.2412    1.2132    4.9150 C.3       1 GEF         0.1273 
     18 C14         2.7499    1.1945    4.5921 C.3       1 GEF         0.1366 
     19 C15         2.8114   -6.0767    1.7056 C.ar      1 GEF         0.6923 
     20 N2          3.4650   -7.1554    2.1766 N.2       1 GEF        -0.7530 
     21 C16         3.6815   -7.1441    3.5016 C.ar      1 GEF         0.6683 
     22 N3          3.3178   -6.1855    4.3775 N.pl3     1 GEF        -0.7059 
     23 N4          2.5593   -6.0433    0.3114 N.pl3     1 GEF        -0.7159 
     24 C17         2.3463   -7.0561   -0.6371 C.ar      1 GEF         0.1140 
     25 C18         2.7279   -6.8595   -1.9643 C.ar      1 GEF        -0.0777 
     26 C19         2.5169   -7.8657   -2.9070 C.ar      1 GEF        -0.1507 
     27 C20         1.9243   -9.0685   -2.5226 C.ar      1 GEF         0.1281 
     28 C21         1.5427   -9.2650   -1.1953 C.ar      1 GEF        -0.0090 
     29 C22         1.7536   -8.2588   -0.2526 C.ar      1 GEF        -0.1434 
     30 Cl1         0.8089  -10.7465   -0.7152 Cl        1 GEF        -0.0640 
     31 F1          1.7270  -10.0257   -3.4404 F         1 GEF        -0.1244 
     32 H1         -0.2832   -1.2436    6.3008 H         1 GEF         0.0461 
     33 H2         -0.1464   -3.0330    6.2227 H         1 GEF         0.0461 
     34 H3         -0.8605   -2.1258    4.8465 H         1 GEF         0.0461 
     35 H4          2.4507   -4.1469    5.6818 H         1 GEF         0.1701 
     36 H5          1.5053   -3.8446    1.0083 H         1 GEF         0.1458 
     37 H6          2.4050   -1.0836    1.5303 H         1 GEF         0.0505 
     38 H7          1.0959   -1.4254    0.3487 H         1 GEF         0.0505 
     39 H8          1.3807    1.0254    0.6897 H         1 GEF         0.0614 
     40 H9         -0.2276    0.4709    1.2664 H         1 GEF         0.0614 
     41 H10         0.7764    2.0814    2.8175 H         1 GEF         0.0346 
     42 H11         0.6054    0.4665    3.5853 H         1 GEF         0.0346 
     43 H12         3.1505    1.9765    1.3452 H         1 GEF         0.0403 
     44 H13         2.8098    3.0963    2.7078 H         1 GEF         0.0403 
     45 H14         5.1853    1.1711    2.4931 H         1 GEF         0.0539 
     46 H15         5.2407    2.9554    2.2943 H         1 GEF         0.0539 
     47 H16         4.6849    0.2525    4.6147 H         1 GEF         0.0539 
     48 H17         4.3716    1.3547    5.9980 H         1 GEF         0.0539 
     49 H18         2.2930    2.1361    4.9306 H         1 GEF         0.0403 
     50 H19         2.2761    0.3492    5.1127 H         1 GEF         0.0403 
     51 H20         4.1608   -7.9065    3.9364 H         1 GEF         0.0570 
     52 H21         3.5286   -6.2414    5.4557 H         1 GEF         0.4259 
     53 H22         3.1902   -5.9260   -2.2750 H         1 GEF         0.1698 
     54 H23         2.8153   -7.7126   -3.9399 H         1 GEF         0.1582 
     55 H24         1.4575   -8.4090    0.7834 H         1 GEF         0.1509 
     56 H56         2.5023   -5.0787   -0.2143 H         1 GEF         0.0000 
@<TRIPOS>BOND
     1    1    2 1    
     2    1   32 1    
     3    1   33 1    
     4    1   34 1    
     5    2    3 1    
     6    3    8 ar   
     7    3    4 ar   
     8    4   35 1    
     9    4    5 ar   
    10    5    6 ar   
    11    5   22 ar   
    12    6   19 ar   
    13    6    7 ar   
    14    7   36 1    
    15    7    8 ar   
    16    8    9 1    
    17    9   10 1    
    18   10   11 1    
    19   10   37 1    
    20   10   38 1    
    21   11   12 1    
    22   11   39 1    
    23   11   40 1    
    24   12   13 1    
    25   12   41 1    
    26   12   42 1    
    27   13   18 1    
    28   13   14 1    
    29   14   15 1    
    30   14   43 1    
    31   14   44 1    
    32   15   16 1    
    33   15   45 1    
    34   15   46 1    
    35   16   17 1    
    36   17   18 1    
    37   17   47 1    
    38   17   48 1    
    39   18   49 1    
    40   18   50 1    
    41   19   23 2    
    42   19   20 ar   
    43   20   21 ar   
    44   21   22 ar   
    45   21   51 1    
    46   22   52 1    
    47   23   24 1    
    48   23   56 1    
    49   24   29 ar   
    50   24   25 ar   
    51   25   26 ar   
    52   25   53 1    
    53   26   27 ar   
    54   26   54 1    
    55   27   28 ar   
    56   27   31 1    
    57   28   29 ar   
    58   28   30 1    
    59   29   55 1    
@<TRIPOS>SUBSTRUCTURE
     1 GEF         1 GROUP             0       ****    0 ROOT    
@<TRIPOS>MOLECULE
~{N}-(3-chloro-4-fluoro-phenyl)-7-methoxy-6-(3-morpholinopropoxy)quinazolin-4-amine
56   59    1
SMALL
USER_CHARGES


@<TRIPOS>ATOM
      1 C1         -0.0976   -2.1021    5.6386 C.3       1 GEF         0.1189 
      2 O1          1.1923   -1.9778    5.0511 O.3       1 GEF        -0.3507 
      3 C2          1.5760   -2.9690    4.1986 C.ar      1 GEF         0.0948 
      4 C3          2.2524   -4.0833    4.7037 C.ar      1 GEF        -0.1819 
      5 C4          2.6669   -5.1223    3.8740 C.ar      1 GEF         0.4344 
      6 C5          2.3820   -5.0193    2.5026 C.ar      1 GEF        -0.2848 
      7 C6          1.7010   -3.9028    1.9872 C.ar      1 GEF        -0.1134 
      8 C7          1.2992   -2.8786    2.8391 C.ar      1 GEF         0.0884 
      9 O2          0.6360   -1.7934    2.3301 O.3       1 GEF        -0.3429 
     10 C8          1.3215   -1.0268    1.3488 C.3       1 GEF         0.1307 
     11 C9          0.8567    0.4212    1.4449 C.3       1 GEF        -0.0914 
     12 C10         1.1322    1.0405    2.8088 C.3       1 GEF         0.1794 
     13 N1          2.5549    1.0487    3.1428 N.3       1 GEF        -0.7375 
     14 C11         3.2520    2.1282    2.4299 C.3       1 GEF         0.1366 
     15 C12         4.7316    2.1239    2.8034 C.3       1 GEF         0.1273 
     16 O3          4.8886    2.2762    4.2146 O.3       1 GEF        -0.4161 
     17 C13         4.2412    1.2132    4.9150 C.3       1 GEF         0.1273 
     18 C14         2.7499    1.1945    4.5921 C.3       1 GEF         0.1366 
     19 C15         2.8114   -6.0767    1.7056 C.ar      1 GEF         0.6923 
     20 N2          3.4650   -7.1554    2.1766 N.2       1 GEF        -0.7530 
     21 C16         3.6815   -7.1441    3.5016 C.ar      1 GEF         0.6683 
     22 N3          3.3178   -6.1855    4.3775 N.pl3     1 GEF        -0.7059 
     23 N4          2.5593   -6.0433    0.3114 N.pl3     1 GEF        -0.7159 
     24 C17         2.4353   -4.9859   -0.6037 C.ar      1 GEF         0.1140 
     25 C18         1.6116   -5.1241   -1.7209 C.ar      1 GEF        -0.0777 
     26 C19         1.4877   -4.0735   -2.6301 C.ar      1 GEF        -0.1507 
     27 C20         2.1874   -2.8849   -2.4222 C.ar      1 GEF         0.1281 
     28 C21         3.0111   -2.7469   -1.3048 C.ar      1 GEF        -0.0090 
     29 C22         3.1351   -3.7974   -0.3957 C.ar      1 GEF        -0.1434 
     30 Cl1         3.8790   -1.2831   -1.0439 Cl        1 GEF        -0.0640 
     31 F1          2.0591   -1.8846   -3.3057 F         1 GEF        -0.1244 
     32 H1         -0.2832   -1.2436    6.3008 H         1 GEF         0.0461 
     33 H2         -0.1464   -3.0330    6.2227 H         1 GEF         0.0461 
     34 H3         -0.8605   -2.1258    4.8465 H         1 GEF         0.0461 
     35 H4          2.4507   -4.1469    5.6818 H         1 GEF         0.1701 
     36 H5          1.5053   -3.8446    1.0083 H         1 GEF         0.1458 
     37 H6          2.4050   -1.0836    1.5303 H         1 GEF         0.0505 
     38 H7          1.0959   -1.4254    0.3487 H         1 GEF         0.0505 
     39 H8          1.3807    1.0254    0.6897 H         1 GEF         0.0614 
     40 H9         -0.2276    0.4709    1.2664 H         1 GEF         0.0614 
     41 H10         0.7764    2.0814    2.8175 H         1 GEF         0.0346 
     42 H11         0.6054    0.4665    3.5853 H         1 GEF         0.0346 
     43 H12         3.1505    1.9765    1.3452 H         1 GEF         0.0403 
     44 H13         2.8098    3.0963    2.7078 H         1 GEF         0.0403 
     45 H14         5.1853    1.1711    2.4931 H         1 GEF         0.0539 
     46 H15         5.2407    2.9554    2.2943 H         1 GEF         0.0539 
     47 H16         4.6849    0.2525    4.6147 H         1 GEF         0.0539 
     48 H17         4.3716    1.3547    5.9980 H         1 GEF         0.0539 
     49 H18         2.2930    2.1361    4.9306 H         1 GEF         0.0403 
     50 H19         2.2761    0.3492    5.1127 H         1 GEF         0.0403 
     51 H20         4.1608   -7.9065    3.9364 H         1 GEF         0.0570 
     52 H21         3.5286   -6.2414    5.4557 H         1 GEF         0.4259 
     53 H22         1.0620   -6.0460   -1.8930 H         1 GEF         0.1698 
     54 H23         0.8455   -4.1811   -3.4992 H         1 GEF         0.1582 
     55 H24         3.7764   -3.6929    0.4769 H         1 GEF         0.1509 
     56 H56         2.4205   -6.9820   -0.2450 H         1 GEF         0.0000 
@<TRIPOS>BOND
     1    1    2 1    
     2    1   32 1    
     3    1   33 1    
     4    1   34 1    
     5    2    3 1    
     6    3    8 ar   
     7    3    4 ar   
     8    4   35 1    
     9    4    5 ar   
    10    5    6 ar   
    11    5   22 ar   
    12    6   19 ar   
    13    6    7 ar   
    14    7   36 1    
    15    7    8 ar   
    16    8    9 1    
    17    9   10 1    
    18   10   11 1    
    19   10   37 1    
    20   10   38 1    
    21   11   12 1    
    22   11   39 1    
    23   11   40 1    
    24   12   13 1    
    25   12   41 1    
    26   12   42 1    
    27   13   18 1    
    28   13   14 1    
    29   14   15 1    
    30   14   43 1    
    31   14   44 1    
    32   15   16 1    
    33   15   45 1    
    34   15   46 1    
    35   16   17 1    
    36   17   18 1    
    37   17   47 1    
    38   17   48 1    
    39   18   49 1    
    40   18   50 1    
    41   19   23 2    
    42   19   20 ar   
    43   20   21 ar   
    44   21   22 ar   
    45   21   51 1    
    46   22   52 1    
    47   23   24 1    
    48   23   56 1    
    49   24   29 ar   
    50   24   25 ar   
    51   25   26 ar   
    52   25   53 1    
    53   26   27 ar   
    54   26   54 1    
    55   27   28 ar   
    56   27   31 1    
    57   28   29 ar   
    58   28   30 1    
    59   29   55 1    
@<TRIPOS>SUBSTRUCTURE
     1 GEF         1 GROUP             0       ****    0 ROOT    
@<TRIPOS>MOLECULE
~{N}-(3-chloro-4-fluoro-phenyl)-7-methoxy-6-(3-morpholinopropoxy)quinazolin-4-amine
56   59    1
SMALL
USER_CHARGES


@<TRIPOS>ATOM
      1 C1         -0.1002   -2.1051    5.6392 C.3       1 GEF         0.1189 
      2 O1          1.1895   -1.9793    5.0516 O.3       1 GEF        -0.3507 
      3 C2          1.5743   -2.9699    4.1989 C.ar      1 GEF         0.0948 
      4 C3          2.2530   -4.0830    4.7036 C.ar      1 GEF        -0.1819 
      5 C4          2.6675   -5.1220    3.8739 C.ar      1 GEF         0.4344 
      6 C5          2.3820   -5.0193    2.5026 C.ar      1 GEF        -0.2848 
      7 C6          1.7000   -3.9033    1.9874 C.ar      1 GEF        -0.1134 
      8 C7          1.2972   -2.8797    2.8394 C.ar      1 GEF         0.0884 
      9 O2          0.6330   -1.7950    2.3306 O.3       1 GEF        -0.3429 
     10 C8          1.3179   -1.0276    1.3495 C.3       1 GEF         0.1307 
     11 C9          0.8517    0.4200    1.4459 C.3       1 GEF        -0.0914 
     12 C10         1.1265    1.0393    2.8099 C.3       1 GEF         0.1794 
     13 N1          2.5492    1.0487    3.1440 N.3       1 GEF        -0.7375 
     14 C11         3.2453    2.1290    2.4314 C.3       1 GEF         0.1366 
     15 C12         4.7249    2.1260    2.8050 C.3       1 GEF         0.1273 
     16 O3          4.8817    2.2782    4.2162 O.3       1 GEF        -0.4161 
     17 C13         4.2352    1.2145    4.9163 C.3       1 GEF         0.1273 
     18 C14         2.7439    1.1944    4.5933 C.3       1 GEF         0.1366 
     19 C15         2.8117   -6.0765    1.7055 C.ar      1 GEF         0.6923 
     20 N2          3.4661   -7.1548    2.1764 N.ar      1 GEF        -0.7530 
     21 C16         3.6829   -7.1434    3.5014 C.ar      1 GEF         0.6683 
     22 N3          3.3190   -6.1849    4.3773 N.pl3     1 GEF        -0.7059 
     23 N4          2.5593   -6.0433    0.3114 N.pl3     1 GEF        -0.7159 
     24 C17         2.3463   -7.0562   -0.6370 C.ar      1 GEF         0.1140 
     25 C18         2.7276   -6.8596   -1.9643 C.ar      1 GEF        -0.0777 
     26 C19         2.5166   -7.8660   -2.9068 C.ar      1 GEF        -0.1507 
     27 C20         1.9243   -9.0688   -2.5222 C.ar      1 GEF         0.1281 
     28 C21         1.5430   -9.2653   -1.1948 C.ar      1 GEF        -0.0090 
     29 C22         1.7539   -8.2590   -0.2523 C.ar      1 GEF        -0.1434 
     30 Cl1         0.8095  -10.7469   -0.7144 Cl        1 GEF        -0.0640 
     31 F1          1.7269  -10.0261   -3.4399 F         1 GEF        -0.1244 
     32 H1         -0.2866   -1.2469    6.3016 H         1 GEF         0.0461 
     33 H2         -0.1478   -3.0361    6.2231 H         1 GEF         0.0461 
     34 H3         -0.8632   -2.1296    4.8472 H         1 GEF         0.0461 
     35 H4          2.4609   -4.1359    5.7713 H         1 GEF         0.1701 
     36 H5          1.4750   -3.8159    0.9270 H         1 GEF         0.1458 
     37 H6          2.4014   -1.0834    1.5310 H         1 GEF         0.0505 
     38 H7          1.0927   -1.4262    0.3493 H         1 GEF         0.0505 
     39 H8          1.3752    1.0248    0.6908 H         1 GEF         0.0614 
     40 H9         -0.2326    0.4687    1.2673 H         1 GEF         0.0614 
     41 H10         0.7698    2.0798    2.8187 H         1 GEF         0.0346 
     42 H11         0.6002    0.4646    3.5863 H         1 GEF         0.0346 
     43 H12         3.1440    1.9774    1.3466 H         1 GEF         0.0403 
     44 H13         2.8022    3.0967    2.7094 H         1 GEF         0.0403 
     45 H14         5.1795    1.1737    2.4945 H         1 GEF         0.0539 
     46 H15         5.2333    2.9582    2.2960 H         1 GEF         0.0539 
     47 H16         4.6798    0.2543    4.6159 H         1 GEF         0.0539 
     48 H17         4.3653    1.3559    5.9994 H         1 GEF         0.0539 
     49 H18         2.2862    2.1356    4.9319 H         1 GEF         0.0403 
     50 H19         2.2709    0.3486    5.1137 H         1 GEF         0.0403 
     51 H20         4.2073   -7.9970    3.9134 H         1 GEF         0.0570 
     52 H21         2.5021   -5.0788   -0.2144 H         1 GEF         0.4259 
     53 H22         3.1897   -5.9261   -2.2751 H         1 GEF         0.1698 
     54 H23         2.8147   -7.7129   -3.9398 H         1 GEF         0.1582 
     55 H24         1.4580   -8.4091    0.7838 H         1 GEF         0.1509 
     56 H56         3.5300   -6.2406    5.4554 H         1 GEF         0.0000 
@<TRIPOS>BOND
     1    1    2 1    
     2    1   32 1    
     3    1   33 1    
     4    1   34 1    
     5    2    3 1    
     6    3    8 ar   
     7    3    4 ar   
     8    4    5 ar   
     9    4   35 1    
    10    5   22 ar   
    11    5    6 ar   
    12    6    7 ar   
    13    6   19 ar   
    14    7    8 ar   
    15    7   36 1    
    16    8    9 1    
    17    9   10 1    
    18   10   11 1    
    19   10   37 1    
    20   10   38 1    
    21   11   12 1    
    22   11   39 1    
    23   11   40 1    
    24   12   13 1    
    25   12   41 1    
    26   12   42 1    
    27   13   18 1    
    28   13   14 1    
    29   14   15 1    
    30   14   43 1    
    31   14   44 1    
    32   15   16 1    
    33   15   45 1    
    34   15   46 1    
    35   16   17 1    
    36   17   18 1    
    37   17   47 1    
    38   17   48 1    
    39   18   49 1    
    40   18   50 1    
    41   19   20 ar   
    42   19   23 1    
    43   20   21 ar   
    44   21   22 ar   
    45   21   51 1    
    46   22   56 1    
    47   23   24 1    
    48   23   52 1    
    49   24   29 ar   
    50   24   25 ar   
    51   25   26 ar   
    52   25   53 1    
    53   26   27 ar   
    54   26   54 1    
    55   27   28 ar   
    56   27   31 1    
    57   28   29 ar   
    58   28   30 1    
    59   29   55 1    
@<TRIPOS>SUBSTRUCTURE
     1 GEF         1 GROUP             0       ****    0 ROOT    
@<TRIPOS>MOLECULE
~{N}-(3-chloro-4-fluoro-phenyl)-7-methoxy-6-(3-morpholinopropoxy)quinazolin-4-amine
57   60    1
SMALL
USER_CHARGES


@<TRIPOS>ATOM
      1 C1         -0.0976   -2.1021    5.6386 C.3       1 GEF         0.1189 
      2 O1          1.1923   -1.9778    5.0511 O.3       1 GEF        -0.3507 
      3 C2          1.5760   -2.9690    4.1986 C.ar      1 GEF         0.0948 
      4 C3          2.2524   -4.0833    4.7037 C.ar      1 GEF        -0.1819 
      5 C4          2.6669   -5.1223    3.8740 C.ar      1 GEF         0.4344 
      6 C5          2.3820   -5.0193    2.5026 C.ar      1 GEF        -0.2848 
      7 C6          1.7010   -3.9028    1.9872 C.ar      1 GEF        -0.1134 
      8 C7          1.2992   -2.8786    2.8391 C.ar      1 GEF         0.0884 
      9 O2          0.6360   -1.7934    2.3301 O.3       1 GEF        -0.3429 
     10 C8          1.3215   -1.0268    1.3488 C.3       1 GEF         0.1307 
     11 C9          0.8567    0.4212    1.4449 C.3       1 GEF        -0.0914 
     12 C10         1.1322    1.0405    2.8088 C.3       1 GEF         0.1794 
     13 N1          2.5549    1.0487    3.1428 N.4       1 GEF        -0.7375 
     14 C11         3.2520    2.1282    2.4299 C.3       1 GEF         0.1366 
     15 C12         4.7316    2.1239    2.8034 C.3       1 GEF         0.1273 
     16 O3          4.8886    2.2762    4.2146 O.3       1 GEF        -0.4161 
     17 C13         4.2412    1.2132    4.9150 C.3       1 GEF         0.1273 
     18 C14         2.7499    1.1945    4.5921 C.3       1 GEF         0.1366 
     19 C15         2.8114   -6.0767    1.7056 C.ar      1 GEF         0.6923 
     20 N2          3.4650   -7.1554    2.1766 N.2       1 GEF        -0.7530 
     21 C16         3.6815   -7.1441    3.5016 C.ar      1 GEF         0.6683 
     22 N3          3.3178   -6.1855    4.3775 N.pl3     1 GEF        -0.7059 
     23 N4          2.5593   -6.0433    0.3114 N.pl3     1 GEF        -0.7159 
     24 C17         2.3463   -7.0561   -0.6371 C.ar      1 GEF         0.1140 
     25 C18         2.7279   -6.8595   -1.9643 C.ar      1 GEF        -0.0777 
     26 C19         2.5169   -7.8657   -2.9070 C.ar      1 GEF        -0.1507 
     27 C20         1.9243   -9.0685   -2.5226 C.ar      1 GEF         0.1281 
     28 C21         1.5427   -9.2650   -1.1953 C.ar      1 GEF        -0.0090 
     29 C22         1.7536   -8.2588   -0.2526 C.ar      1 GEF        -0.1434 
     30 Cl1         0.8089  -10.7465   -0.7152 Cl        1 GEF        -0.0640 
     31 F1          1.7270  -10.0257   -3.4404 F         1 GEF        -0.1244 
     32 H1         -0.2832   -1.2436    6.3008 H         1 GEF         0.0461 
     33 H2         -0.1464   -3.0330    6.2227 H         1 GEF         0.0461 
     34 H3         -0.8605   -2.1258    4.8465 H         1 GEF         0.0461 
     35 H4          2.4507   -4.1469    5.6818 H         1 GEF         0.1701 
     36 H5          1.5053   -3.8446    1.0083 H         1 GEF         0.1458 
     37 H6          2.4050   -1.0836    1.5303 H         1 GEF         0.0505 
     38 H7          1.0959   -1.4254    0.3487 H         1 GEF         0.0505 
     39 H8          1.3807    1.0254    0.6897 H         1 GEF         0.0614 
     40 H9         -0.2276    0.4709    1.2664 H         1 GEF         0.0614 
     41 H10         0.7764    2.0814    2.8175 H         1 GEF         0.0346 
     42 H11         0.6054    0.4665    3.5853 H         1 GEF         0.0346 
     43 H12         3.1505    1.9765    1.3452 H         1 GEF         0.0403 
     44 H13         2.8098    3.0963    2.7078 H         1 GEF         0.0403 
     45 H14         5.1853    1.1711    2.4931 H         1 GEF         0.0539 
     46 H15         5.2407    2.9554    2.2943 H         1 GEF         0.0539 
     47 H16         4.6849    0.2525    4.6147 H         1 GEF         0.0539 
     48 H17         4.3716    1.3547    5.9980 H         1 GEF         0.0539 
     49 H18         2.2930    2.1361    4.9306 H         1 GEF         0.0403 
     50 H19         2.2761    0.3492    5.1127 H         1 GEF         0.0403 
     51 H20         4.1608   -7.9065    3.9364 H         1 GEF         0.0570 
     52 H21         3.5286   -6.2414    5.4557 H         1 GEF         0.4259 
     53 H22         3.1902   -5.9260   -2.2750 H         1 GEF         0.1698 
     54 H23         2.8153   -7.7126   -3.9399 H         1 GEF         0.1582 
     55 H24         1.4575   -8.4090    0.7834 H         1 GEF         0.1509 
     56 H56         2.5023   -5.0787   -0.2143 H         1 GEF         0.0000 
     57 H57         2.9757    0.0837    2.8238 H         1 GEF         0.0000 
@<TRIPOS>BOND
     1    1    2 1    
     2    1   32 1    
     3    1   33 1    
     4    1   34 1    
     5    2    3 1    
     6    3    8 ar   
     7    3    4 ar   
     8    4   35 1    
     9    4    5 ar   
    10    5    6 ar   
    11    5   22 ar   
    12    6   19 ar   
    13    6    7 ar   
    14    7   36 1    
    15    7    8 ar   
    16    8    9 1    
    17    9   10 1    
    18   10   11 1    
    19   10   37 1    
    20   10   38 1    
    21   11   12 1    
    22   11   39 1    
    23   11   40 1    
    24   12   13 1    
    25   12   41 1    
    26   12   42 1    
    27   13   18 1    
    28   13   14 1    
    29   13   57 1    
    30   14   15 1    
    31   14   43 1    
    32   14   44 1    
    33   15   16 1    
    34   15   45 1    
    35   15   46 1    
    36   16   17 1    
    37   17   18 1    
    38   17   47 1    
    39   17   48 1    
    40   18   49 1    
    41   18   50 1    
    42   19   23 2    
    43   19   20 ar   
    44   20   21 ar   
    45   21   22 ar   
    46   21   51 1    
    47   22   52 1    
    48   23   24 1    
    49   23   56 1    
    50   24   29 ar   
    51   24   25 ar   
    52   25   26 ar   
    53   25   53 1    
    54   26   27 ar   
    55   26   54 1    
    56   27   28 ar   
    57   27   31 1    
    58   28   29 ar   
    59   28   30 1    
    60   29   55 1    
@<TRIPOS>SUBSTRUCTURE
     1 GEF         1 GROUP             0       ****    0 ROOT    
@<TRIPOS>MOLECULE
~{N}-(3-chloro-4-fluoro-phenyl)-7-methoxy-6-(3-morpholinopropoxy)quinazolin-4-amine
57   60    1
SMALL
USER_CHARGES


@<TRIPOS>ATOM
      1 C1         -0.0976   -2.1021    5.6386 C.3       1 GEF         0.1189 
      2 O1          1.1923   -1.9778    5.0511 O.3       1 GEF        -0.3507 
      3 C2          1.5760   -2.9690    4.1986 C.ar      1 GEF         0.0948 
      4 C3          2.2524   -4.0833    4.7037 C.ar      1 GEF        -0.1819 
      5 C4          2.6669   -5.1223    3.8740 C.ar      1 GEF         0.4344 
      6 C5          2.3820   -5.0193    2.5026 C.ar      1 GEF        -0.2848 
      7 C6          1.7010   -3.9028    1.9872 C.ar      1 GEF        -0.1134 
      8 C7          1.2992   -2.8786    2.8391 C.ar      1 GEF         0.0884 
      9 O2          0.6360   -1.7934    2.3301 O.3       1 GEF        -0.3429 
     10 C8          1.3215   -1.0268    1.3488 C.3       1 GEF         0.1307 
     11 C9          0.8567    0.4212    1.4449 C.3       1 GEF        -0.0914 
     12 C10         1.1322    1.0405    2.8088 C.3       1 GEF         0.1794 
     13 N1          2.5549    1.0487    3.1428 N.4       1 GEF        -0.7375 
     14 C11         3.2520    2.1282    2.4299 C.3       1 GEF         0.1366 
     15 C12         4.7316    2.1239    2.8034 C.3       1 GEF         0.1273 
     16 O3          4.8886    2.2762    4.2146 O.3       1 GEF        -0.4161 
     17 C13         4.2412    1.2132    4.9150 C.3       1 GEF         0.1273 
     18 C14         2.7499    1.1945    4.5921 C.3       1 GEF         0.1366 
     19 C15         2.8114   -6.0767    1.7056 C.ar      1 GEF         0.6923 
     20 N2          3.4650   -7.1554    2.1766 N.2       1 GEF        -0.7530 
     21 C16         3.6815   -7.1441    3.5016 C.ar      1 GEF         0.6683 
     22 N3          3.3178   -6.1855    4.3775 N.pl3     1 GEF        -0.7059 
     23 N4          2.5593   -6.0433    0.3114 N.pl3     1 GEF        -0.7159 
     24 C17         2.4353   -4.9859   -0.6037 C.ar      1 GEF         0.1140 
     25 C18         1.6116   -5.1241   -1.7209 C.ar      1 GEF        -0.0777 
     26 C19         1.4877   -4.0735   -2.6301 C.ar      1 GEF        -0.1507 
     27 C20         2.1874   -2.8849   -2.4222 C.ar      1 GEF         0.1281 
     28 C21         3.0111   -2.7469   -1.3048 C.ar      1 GEF        -0.0090 
     29 C22         3.1351   -3.7974   -0.3957 C.ar      1 GEF        -0.1434 
     30 Cl1         3.8790   -1.2831   -1.0439 Cl        1 GEF        -0.0640 
     31 F1          2.0591   -1.8846   -3.3057 F         1 GEF        -0.1244 
     32 H1         -0.2832   -1.2436    6.3008 H         1 GEF         0.0461 
     33 H2         -0.1464   -3.0330    6.2227 H         1 GEF         0.0461 
     34 H3         -0.8605   -2.1258    4.8465 H         1 GEF         0.0461 
     35 H4          2.4507   -4.1469    5.6818 H         1 GEF         0.1701 
     36 H5          1.5053   -3.8446    1.0083 H         1 GEF         0.1458 
     37 H6          2.4050   -1.0836    1.5303 H         1 GEF         0.0505 
     38 H7          1.0959   -1.4254    0.3487 H         1 GEF         0.0505 
     39 H8          1.3807    1.0254    0.6897 H         1 GEF         0.0614 
     40 H9         -0.2276    0.4709    1.2664 H         1 GEF         0.0614 
     41 H10         0.7764    2.0814    2.8175 H         1 GEF         0.0346 
     42 H11         0.6054    0.4665    3.5853 H         1 GEF         0.0346 
     43 H12         3.1505    1.9765    1.3452 H         1 GEF         0.0403 
     44 H13         2.8098    3.0963    2.7078 H         1 GEF         0.0403 
     45 H14         5.1853    1.1711    2.4931 H         1 GEF         0.0539 
     46 H15         5.2407    2.9554    2.2943 H         1 GEF         0.0539 
     47 H16         4.6849    0.2525    4.6147 H         1 GEF         0.0539 
     48 H17         4.3716    1.3547    5.9980 H         1 GEF         0.0539 
     49 H18         2.2930    2.1361    4.9306 H         1 GEF         0.0403 
     50 H19         2.2761    0.3492    5.1127 H         1 GEF         0.0403 
     51 H20         4.1608   -7.9065    3.9364 H         1 GEF         0.0570 
     52 H21         3.5286   -6.2414    5.4557 H         1 GEF         0.4259 
     53 H22         1.0620   -6.0460   -1.8930 H         1 GEF         0.1698 
     54 H23         0.8455   -4.1811   -3.4992 H         1 GEF         0.1582 
     55 H24         3.7764   -3.6929    0.4769 H         1 GEF         0.1509 
     56 H56         2.4205   -6.9820   -0.2450 H         1 GEF         0.0000 
     57 H57         2.9757    0.0837    2.8238 H         1 GEF         0.0000 
@<TRIPOS>BOND
     1    1    2 1    
     2    1   32 1    
     3    1   33 1    
     4    1   34 1    
     5    2    3 1    
     6    3    8 ar   
     7    3    4 ar   
     8    4   35 1    
     9    4    5 ar   
    10    5    6 ar   
    11    5   22 ar   
    12    6   19 ar   
    13    6    7 ar   
    14    7   36 1    
    15    7    8 ar   
    16    8    9 1    
    17    9   10 1    
    18   10   11 1    
    19   10   37 1    
    20   10   38 1    
    21   11   12 1    
    22   11   39 1    
    23   11   40 1    
    24   12   13 1    
    25   12   41 1    
    26   12   42 1    
    27   13   18 1    
    28   13   14 1    
    29   13   57 1    
    30   14   15 1    
    31   14   43 1    
    32   14   44 1    
    33   15   16 1    
    34   15   45 1    
    35   15   46 1    
    36   16   17 1    
    37   17   18 1    
    38   17   47 1    
    39   17   48 1    
    40   18   49 1    
    41   18   50 1    
    42   19   23 2    
    43   19   20 ar   
    44   20   21 ar   
    45   21   22 ar   
    46   21   51 1    
    47   22   52 1    
    48   23   24 1    
    49   23   56 1    
    50   24   29 ar   
    51   24   25 ar   
    52   25   26 ar   
    53   25   53 1    
    54   26   27 ar   
    55   26   54 1    
    56   27   28 ar   
    57   27   31 1    
    58   28   29 ar   
    59   28   30 1    
    60   29   55 1    
@<TRIPOS>SUBSTRUCTURE
     1 GEF         1 GROUP             0       ****    0 ROOT    
@<TRIPOS>MOLECULE
~{N}-(3-chloro-4-fluoro-phenyl)-7-methoxy-6-(3-morpholinopropoxy)quinazolin-4-amine
57   60    1
SMALL
USER_CHARGES


@<TRIPOS>ATOM
      1 C1         -0.1002   -2.1051    5.6392 C.3       1 GEF         0.1189 
      2 O1          1.1895   -1.9793    5.0516 O.3       1 GEF        -0.3507 
      3 C2          1.5743   -2.9699    4.1989 C.ar      1 GEF         0.0948 
      4 C3          2.2530   -4.0830    4.7036 C.ar      1 GEF        -0.1819 
      5 C4          2.6675   -5.1220    3.8739 C.ar      1 GEF         0.4344 
      6 C5          2.3820   -5.0193    2.5026 C.ar      1 GEF        -0.2848 
      7 C6          1.7000   -3.9033    1.9874 C.ar      1 GEF        -0.1134 
      8 C7          1.2972   -2.8797    2.8394 C.ar      1 GEF         0.0884 
      9 O2          0.6330   -1.7950    2.3306 O.3       1 GEF        -0.3429 
     10 C8          1.3179   -1.0276    1.3495 C.3       1 GEF         0.1307 
     11 C9          0.8517    0.4200    1.4459 C.3       1 GEF        -0.0914 
     12 C10         1.1265    1.0393    2.8099 C.3       1 GEF         0.1794 
     13 N1          2.5492    1.0487    3.1440 N.4       1 GEF        -0.7375 
     14 C11         3.2453    2.1290    2.4314 C.3       1 GEF         0.1366 
     15 C12         4.7249    2.1260    2.8050 C.3       1 GEF         0.1273 
     16 O3          4.8817    2.2782    4.2162 O.3       1 GEF        -0.4161 
     17 C13         4.2352    1.2145    4.9163 C.3       1 GEF         0.1273 
     18 C14         2.7439    1.1944    4.5933 C.3       1 GEF         0.1366 
     19 C15         2.8117   -6.0765    1.7055 C.ar      1 GEF         0.6923 
     20 N2          3.4661   -7.1548    2.1764 N.ar      1 GEF        -0.7530 
     21 C16         3.6829   -7.1434    3.5014 C.ar      1 GEF         0.6683 
     22 N3          3.3190   -6.1849    4.3773 N.pl3     1 GEF        -0.7059 
     23 N4          2.5593   -6.0433    0.3114 N.pl3     1 GEF        -0.7159 
     24 C17         2.3463   -7.0562   -0.6370 C.ar      1 GEF         0.1140 
     25 C18         2.7276   -6.8596   -1.9643 C.ar      1 GEF        -0.0777 
     26 C19         2.5166   -7.8660   -2.9068 C.ar      1 GEF        -0.1507 
     27 C20         1.9243   -9.0688   -2.5222 C.ar      1 GEF         0.1281 
     28 C21         1.5430   -9.2653   -1.1948 C.ar      1 GEF        -0.0090 
     29 C22         1.7539   -8.2590   -0.2523 C.ar      1 GEF        -0.1434 
     30 Cl1         0.8095  -10.7469   -0.7144 Cl        1 GEF        -0.0640 
     31 F1          1.7269  -10.0261   -3.4399 F         1 GEF        -0.1244 
     32 H1         -0.2866   -1.2469    6.3016 H         1 GEF         0.0461 
     33 H2         -0.1478   -3.0361    6.2231 H         1 GEF         0.0461 
     34 H3         -0.8632   -2.1296    4.8472 H         1 GEF         0.0461 
     35 H4          2.4609   -4.1359    5.7713 H         1 GEF         0.1701 
     36 H5          1.4750   -3.8159    0.9270 H         1 GEF         0.1458 
     37 H6          2.4014   -1.0834    1.5310 H         1 GEF         0.0505 
     38 H7          1.0927   -1.4262    0.3493 H         1 GEF         0.0505 
     39 H8          1.3752    1.0248    0.6908 H         1 GEF         0.0614 
     40 H9         -0.2326    0.4687    1.2673 H         1 GEF         0.0614 
     41 H10         0.7698    2.0798    2.8187 H         1 GEF         0.0346 
     42 H11         0.6002    0.4646    3.5863 H         1 GEF         0.0346 
     43 H12         3.1440    1.9774    1.3466 H         1 GEF         0.0403 
     44 H13         2.8022    3.0967    2.7094 H         1 GEF         0.0403 
     45 H14         5.1795    1.1737    2.4945 H         1 GEF         0.0539 
     46 H15         5.2333    2.9582    2.2960 H         1 GEF         0.0539 
     47 H16         4.6798    0.2543    4.6159 H         1 GEF         0.0539 
     48 H17         4.3653    1.3559    5.9994 H         1 GEF         0.0539 
     49 H18         2.2862    2.1356    4.9319 H         1 GEF         0.0403 
     50 H19         2.2709    0.3486    5.1137 H         1 GEF         0.0403 
     51 H20         4.2073   -7.9970    3.9134 H         1 GEF         0.0570 
     52 H21         2.5021   -5.0788   -0.2144 H         1 GEF         0.4259 
     53 H22         3.1897   -5.9261   -2.2751 H         1 GEF         0.1698 
     54 H23         2.8147   -7.7129   -3.9398 H         1 GEF         0.1582 
     55 H24         1.4580   -8.4091    0.7838 H         1 GEF         0.1509 
     56 H56         2.9709    0.0842    2.8248 H         1 GEF         0.0000 
     57 H57         3.5300   -6.2406    5.4554 H         1 GEF         0.0000 
@<TRIPOS>BOND
     1    1    2 1    
     2    1   32 1    
     3    1   33 1    
     4    1   34 1    
     5    2    3 1    
     6    3    8 ar   
     7    3    4 ar   
     8    4    5 ar   
     9    4   35 1    
    10    5   22 ar   
    11    5    6 ar   
    12    6    7 ar   
    13    6   19 ar   
    14    7    8 ar   
    15    7   36 1    
    16    8    9 1    
    17    9   10 1    
    18   10   11 1    
    19   10   37 1    
    20   10   38 1    
    21   11   12 1    
    22   11   39 1    
    23   11   40 1    
    24   12   13 1    
    25   12   41 1    
    26   12   42 1    
    27   13   18 1    
    28   13   14 1    
    29   13   56 1    
    30   14   15 1    
    31   14   43 1    
    32   14   44 1    
    33   15   16 1    
    34   15   45 1    
    35   15   46 1    
    36   16   17 1    
    37   17   18 1    
    38   17   47 1    
    39   17   48 1    
    40   18   49 1    
    41   18   50 1    
    42   19   20 ar   
    43   19   23 1    
    44   20   21 ar   
    45   21   22 ar   
    46   21   51 1    
    47   22   57 1    
    48   23   24 1    
    49   23   52 1    
    50   24   29 ar   
    51   24   25 ar   
    52   25   26 ar   
    53   25   53 1    
    54   26   27 ar   
    55   26   54 1    
    56   27   28 ar   
    57   27   31 1    
    58   28   29 ar   
    59   28   30 1    
    60   29   55 1    
@<TRIPOS>SUBSTRUCTURE
     1 GEF         1 GROUP             0       ****    0 ROOT    
@<TRIPOS>MOLECULE
~{N}-(3-chloro-4-fluoro-phenyl)-7-methoxy-6-(3-morpholinopropoxy)quinazolin-4-amine
54   57    1
SMALL
USER_CHARGES


@<TRIPOS>ATOM
      1 C1         -0.1002   -2.1051    5.6392 C.3       1 GEF         0.1189 
      2 O1          1.1895   -1.9793    5.0516 O.3       1 GEF        -0.3507 
      3 C2          1.5743   -2.9699    4.1989 C.ar      1 GEF         0.0948 
      4 C3          2.2530   -4.0830    4.7036 C.ar      1 GEF        -0.1819 
      5 C4          2.6675   -5.1220    3.8739 C.ar      1 GEF         0.4344 
      6 C5          2.3820   -5.0193    2.5026 C.ar      1 GEF        -0.2848 
      7 C6          1.7000   -3.9033    1.9874 C.ar      1 GEF        -0.1134 
      8 C7          1.2972   -2.8797    2.8394 C.ar      1 GEF         0.0884 
      9 O2          0.6330   -1.7950    2.3306 O.3       1 GEF        -0.3429 
     10 C8          1.3179   -1.0276    1.3495 C.3       1 GEF         0.1307 
     11 C9          0.8517    0.4200    1.4459 C.3       1 GEF        -0.0914 
     12 C10         1.1265    1.0393    2.8099 C.3       1 GEF         0.1794 
     13 N1          2.5492    1.0487    3.1440 N.3       1 GEF        -0.7375 
     14 C11         3.2453    2.1290    2.4314 C.3       1 GEF         0.1366 
     15 C12         4.7249    2.1260    2.8050 C.3       1 GEF         0.1273 
     16 O3          4.8817    2.2782    4.2162 O.3       1 GEF        -0.4161 
     17 C13         4.2352    1.2145    4.9163 C.3       1 GEF         0.1273 
     18 C14         2.7439    1.1944    4.5933 C.3       1 GEF         0.1366 
     19 C15         2.8117   -6.0765    1.7055 C.ar      1 GEF         0.6923 
     20 N2          3.4661   -7.1548    2.1764 N.ar      1 GEF        -0.7530 
     21 C16         3.6829   -7.1434    3.5014 C.ar      1 GEF         0.6683 
     22 N3          3.3190   -6.1849    4.3773 N.ar      1 GEF        -0.7059 
     23 N4          2.5593   -6.0433    0.3114 N.2       1 GEF        -0.7159 
     24 C17         2.3463   -7.0562   -0.6370 C.ar      1 GEF         0.1140 
     25 C18         2.7276   -6.8596   -1.9643 C.ar      1 GEF        -0.0777 
     26 C19         2.5166   -7.8660   -2.9068 C.ar      1 GEF        -0.1507 
     27 C20         1.9243   -9.0688   -2.5222 C.ar      1 GEF         0.1281 
     28 C21         1.5430   -9.2653   -1.1948 C.ar      1 GEF        -0.0090 
     29 C22         1.7539   -8.2590   -0.2523 C.ar      1 GEF        -0.1434 
     30 Cl1         0.8095  -10.7469   -0.7144 Cl        1 GEF        -0.0640 
     31 F1          1.7269  -10.0261   -3.4399 F         1 GEF        -0.1244 
     32 H1         -0.2866   -1.2469    6.3016 H         1 GEF         0.0461 
     33 H2         -0.1478   -3.0361    6.2231 H         1 GEF         0.0461 
     34 H3         -0.8632   -2.1296    4.8472 H         1 GEF         0.0461 
     35 H4          2.4609   -4.1359    5.7713 H         1 GEF         0.1701 
     36 H5          1.4750   -3.8159    0.9270 H         1 GEF         0.1458 
     37 H6          2.4014   -1.0834    1.5310 H         1 GEF         0.0505 
     38 H7          1.0927   -1.4262    0.3493 H         1 GEF         0.0505 
     39 H8          1.3752    1.0248    0.6908 H         1 GEF         0.0614 
     40 H9         -0.2326    0.4687    1.2673 H         1 GEF         0.0614 
     41 H10         0.7698    2.0798    2.8187 H         1 GEF         0.0346 
     42 H11         0.6002    0.4646    3.5863 H         1 GEF         0.0346 
     43 H12         3.1440    1.9774    1.3466 H         1 GEF         0.0403 
     44 H13         2.8022    3.0967    2.7094 H         1 GEF         0.0403 
     45 H14         5.1795    1.1737    2.4945 H         1 GEF         0.0539 
     46 H15         5.2333    2.9582    2.2960 H         1 GEF         0.0539 
     47 H16         4.6798    0.2543    4.6159 H         1 GEF         0.0539 
     48 H17         4.3653    1.3559    5.9994 H         1 GEF         0.0539 
     49 H18         2.2862    2.1356    4.9319 H         1 GEF         0.0403 
     50 H19         2.2709    0.3486    5.1137 H         1 GEF         0.0403 
     51 H20         4.2073   -7.9970    3.9134 H         1 GEF         0.0570 
     52 H22         3.1897   -5.9261   -2.2751 H         1 GEF         0.1698 
     53 H23         2.8147   -7.7129   -3.9398 H         1 GEF         0.1582 
     54 H24         1.4580   -8.4091    0.7838 H         1 GEF         0.1509 
@<TRIPOS>BOND
     1    1    2 1    
     2    1   32 1    
     3    1   33 1    
     4    1   34 1    
     5    2    3 1    
     6    3    8 ar   
     7    3    4 ar   
     8    4    5 ar   
     9    4   35 1    
    10    5   22 ar   
    11    5    6 ar   
    12    6    7 ar   
    13    6   19 ar   
    14    7    8 ar   
    15    7   36 1    
    16    8    9 1    
    17    9   10 1    
    18   10   11 1    
    19   10   37 1    
    20   10   38 1    
    21   11   12 1    
    22   11   39 1    
    23   11   40 1    
    24   12   13 1    
    25   12   41 1    
    26   12   42 1    
    27   13   18 1    
    28   13   14 1    
    29   14   15 1    
    30   14   43 1    
    31   14   44 1    
    32   15   16 1    
    33   15   45 1    
    34   15   46 1    
    35   16   17 1    
    36   17   18 1    
    37   17   47 1    
    38   17   48 1    
    39   18   49 1    
    40   18   50 1    
    41   19   20 ar   
    42   19   23 1    
    43   20   21 ar   
    44   21   22 ar   
    45   21   51 1    
    46   23   24 1    
    47   24   29 ar   
    48   24   25 ar   
    49   25   26 ar   
    50   25   52 1    
    51   26   27 ar   
    52   26   53 1    
    53   27   28 ar   
    54   27   31 1    
    55   28   29 ar   
    56   28   30 1    
    57   29   54 1    
@<TRIPOS>SUBSTRUCTURE
     1 GEF         1 GROUP             0       ****    0 ROOT    
@<TRIPOS>MOLECULE
~{N}-(3-chloro-4-fluoro-phenyl)-7-methoxy-6-(3-morpholinopropoxy)quinazolin-4-amine
55   58    1
SMALL
USER_CHARGES


@<TRIPOS>ATOM
      1 C1         -0.1002   -2.1051    5.6392 C.3       1 GEF         0.1189 
      2 O1          1.1895   -1.9793    5.0516 O.3       1 GEF        -0.3507 
      3 C2          1.5743   -2.9699    4.1989 C.ar      1 GEF         0.0948 
      4 C3          2.2530   -4.0830    4.7036 C.ar      1 GEF        -0.1819 
      5 C4          2.6675   -5.1220    3.8739 C.ar      1 GEF         0.4344 
      6 C5          2.3820   -5.0193    2.5026 C.ar      1 GEF        -0.2848 
      7 C6          1.7000   -3.9033    1.9874 C.ar      1 GEF        -0.1134 
      8 C7          1.2972   -2.8797    2.8394 C.ar      1 GEF         0.0884 
      9 O2          0.6330   -1.7950    2.3306 O.3       1 GEF        -0.3429 
     10 C8          1.3179   -1.0276    1.3495 C.3       1 GEF         0.1307 
     11 C9          0.8517    0.4200    1.4459 C.3       1 GEF        -0.0914 
     12 C10         1.1265    1.0393    2.8099 C.3       1 GEF         0.1794 
     13 N1          2.5492    1.0487    3.1440 N.4       1 GEF        -0.7375 
     14 C11         3.2453    2.1290    2.4314 C.3       1 GEF         0.1366 
     15 C12         4.7249    2.1260    2.8050 C.3       1 GEF         0.1273 
     16 O3          4.8817    2.2782    4.2162 O.3       1 GEF        -0.4161 
     17 C13         4.2352    1.2145    4.9163 C.3       1 GEF         0.1273 
     18 C14         2.7439    1.1944    4.5933 C.3       1 GEF         0.1366 
     19 C15         2.8117   -6.0765    1.7055 C.ar      1 GEF         0.6923 
     20 N2          3.4661   -7.1548    2.1764 N.ar      1 GEF        -0.7530 
     21 C16         3.6829   -7.1434    3.5014 C.ar      1 GEF         0.6683 
     22 N3          3.3190   -6.1849    4.3773 N.ar      1 GEF        -0.7059 
     23 N4          2.5593   -6.0433    0.3114 N.2       1 GEF        -0.7159 
     24 C17         2.3463   -7.0562   -0.6370 C.ar      1 GEF         0.1140 
     25 C18         2.7276   -6.8596   -1.9643 C.ar      1 GEF        -0.0777 
     26 C19         2.5166   -7.8660   -2.9068 C.ar      1 GEF        -0.1507 
     27 C20         1.9243   -9.0688   -2.5222 C.ar      1 GEF         0.1281 
     28 C21         1.5430   -9.2653   -1.1948 C.ar      1 GEF        -0.0090 
     29 C22         1.7539   -8.2590   -0.2523 C.ar      1 GEF        -0.1434 
     30 Cl1         0.8095  -10.7469   -0.7144 Cl        1 GEF        -0.0640 
     31 F1          1.7269  -10.0261   -3.4399 F         1 GEF        -0.1244 
     32 H1         -0.2866   -1.2469    6.3016 H         1 GEF         0.0461 
     33 H2         -0.1478   -3.0361    6.2231 H         1 GEF         0.0461 
     34 H3         -0.8632   -2.1296    4.8472 H         1 GEF         0.0461 
     35 H4          2.4609   -4.1359    5.7713 H         1 GEF         0.1701 
     36 H5          1.4750   -3.8159    0.9270 H         1 GEF         0.1458 
     37 H6          2.4014   -1.0834    1.5310 H         1 GEF         0.0505 
     38 H7          1.0927   -1.4262    0.3493 H         1 GEF         0.0505 
     39 H8          1.3752    1.0248    0.6908 H         1 GEF         0.0614 
     40 H9         -0.2326    0.4687    1.2673 H         1 GEF         0.0614 
     41 H10         0.7698    2.0798    2.8187 H         1 GEF         0.0346 
     42 H11         0.6002    0.4646    3.5863 H         1 GEF         0.0346 
     43 H12         3.1440    1.9774    1.3466 H         1 GEF         0.0403 
     44 H13         2.8022    3.0967    2.7094 H         1 GEF         0.0403 
     45 H14         5.1795    1.1737    2.4945 H         1 GEF         0.0539 
     46 H15         5.2333    2.9582    2.2960 H         1 GEF         0.0539 
     47 H16         4.6798    0.2543    4.6159 H         1 GEF         0.0539 
     48 H17         4.3653    1.3559    5.9994 H         1 GEF         0.0539 
     49 H18         2.2862    2.1356    4.9319 H         1 GEF         0.0403 
     50 H19         2.2709    0.3486    5.1137 H         1 GEF         0.0403 
     51 H20         4.2073   -7.9970    3.9134 H         1 GEF         0.0570 
     52 H22         3.1897   -5.9261   -2.2751 H         1 GEF         0.1698 
     53 H23         2.8147   -7.7129   -3.9398 H         1 GEF         0.1582 
     54 H24         1.4580   -8.4091    0.7838 H         1 GEF         0.1509 
     55 H55         2.9709    0.0842    2.8248 H         1 GEF         0.0000 
@<TRIPOS>BOND
     1    1    2 1    
     2    1   32 1    
     3    1   33 1    
     4    1   34 1    
     5    2    3 1    
     6    3    8 ar   
     7    3    4 ar   
     8    4    5 ar   
     9    4   35 1    
    10    5   22 ar   
    11    5    6 ar   
    12    6    7 ar   
    13    6   19 ar   
    14    7    8 ar   
    15    7   36 1    
    16    8    9 1    
    17    9   10 1    
    18   10   11 1    
    19   10   37 1    
    20   10   38 1    
    21   11   12 1    
    22   11   39 1    
    23   11   40 1    
    24   12   13 1    
    25   12   41 1    
    26   12   42 1    
    27   13   18 1    
    28   13   14 1    
    29   13   55 1    
    30   14   15 1    
    31   14   43 1    
    32   14   44 1    
    33   15   16 1    
    34   15   45 1    
    35   15   46 1    
    36   16   17 1    
    37   17   18 1    
    38   17   47 1    
    39   17   48 1    
    40   18   49 1    
    41   18   50 1    
    42   19   20 ar   
    43   19   23 1    
    44   20   21 ar   
    45   21   22 ar   
    46   21   51 1    
    47   23   24 1    
    48   24   29 ar   
    49   24   25 ar   
    50   25   26 ar   
    51   25   52 1    
    52   26   27 ar   
    53   26   53 1    
    54   27   28 ar   
    55   27   31 1    
    56   28   29 ar   
    57   28   30 1    
    58   29   54 1    
@<TRIPOS>SUBSTRUCTURE
     1 GEF         1 GROUP             0       ****    0 ROOT    
@<TRIPOS>MOLECULE
~{N}-(3-chloro-4-fluoro-phenyl)-7-methoxy-6-(3-morpholinopropoxy)quinazolin-4-amine
56   59    1
SMALL
USER_CHARGES


@<TRIPOS>ATOM
      1 C1         -0.1002   -2.1051    5.6392 C.3       1 GEF         0.1189 
      2 O1          1.1895   -1.9793    5.0516 O.3       1 GEF        -0.3507 
      3 C2          1.5743   -2.9699    4.1989 C.ar      1 GEF         0.0948 
      4 C3          2.2530   -4.0830    4.7036 C.ar      1 GEF        -0.1819 
      5 C4          2.6675   -5.1220    3.8739 C.ar      1 GEF         0.4344 
      6 C5          2.3820   -5.0193    2.5026 C.ar      1 GEF        -0.2848 
      7 C6          1.7000   -3.9033    1.9874 C.ar      1 GEF        -0.1134 
      8 C7          1.2972   -2.8797    2.8394 C.ar      1 GEF         0.0884 
      9 O2          0.6330   -1.7950    2.3306 O.3       1 GEF        -0.3429 
     10 C8          1.3179   -1.0276    1.3495 C.3       1 GEF         0.1307 
     11 C9          0.8517    0.4200    1.4459 C.3       1 GEF        -0.0914 
     12 C10         1.1265    1.0393    2.8099 C.3       1 GEF         0.1794 
     13 N1          2.5492    1.0487    3.1440 N.3       1 GEF        -0.7375 
     14 C11         3.2453    2.1290    2.4314 C.3       1 GEF         0.1366 
     15 C12         4.7249    2.1260    2.8050 C.3       1 GEF         0.1273 
     16 O3          4.8817    2.2782    4.2162 O.3       1 GEF        -0.4161 
     17 C13         4.2352    1.2145    4.9163 C.3       1 GEF         0.1273 
     18 C14         2.7439    1.1944    4.5933 C.3       1 GEF         0.1366 
     19 C15         2.8117   -6.0765    1.7055 C.ar      1 GEF         0.6923 
     20 N2          3.4661   -7.1548    2.1764 N.pl3     1 GEF        -0.7530 
     21 C16         3.6829   -7.1434    3.5014 C.ar      1 GEF         0.6683 
     22 N3          3.3190   -6.1849    4.3773 N.ar      1 GEF        -0.7059 
     23 N4          2.5593   -6.0433    0.3114 N.pl3     1 GEF        -0.7159 
     24 C17         2.3463   -7.0562   -0.6370 C.ar      1 GEF         0.1140 
     25 C18         2.7276   -6.8596   -1.9643 C.ar      1 GEF        -0.0777 
     26 C19         2.5166   -7.8660   -2.9068 C.ar      1 GEF        -0.1507 
     27 C20         1.9243   -9.0688   -2.5222 C.ar      1 GEF         0.1281 
     28 C21         1.5430   -9.2653   -1.1948 C.ar      1 GEF        -0.0090 
     29 C22         1.7539   -8.2590   -0.2523 C.ar      1 GEF        -0.1434 
     30 Cl1         0.8095  -10.7469   -0.7144 Cl        1 GEF        -0.0640 
     31 F1          1.7269  -10.0261   -3.4399 F         1 GEF        -0.1244 
     32 H1         -0.2866   -1.2469    6.3016 H         1 GEF         0.0461 
     33 H2         -0.1478   -3.0361    6.2231 H         1 GEF         0.0461 
     34 H3         -0.8632   -2.1296    4.8472 H         1 GEF         0.0461 
     35 H4          2.4609   -4.1359    5.7713 H         1 GEF         0.1701 
     36 H5          1.4750   -3.8159    0.9270 H         1 GEF         0.1458 
     37 H6          2.4014   -1.0834    1.5310 H         1 GEF         0.0505 
     38 H7          1.0927   -1.4262    0.3493 H         1 GEF         0.0505 
     39 H8          1.3752    1.0248    0.6908 H         1 GEF         0.0614 
     40 H9         -0.2326    0.4687    1.2673 H         1 GEF         0.0614 
     41 H10         0.7698    2.0798    2.8187 H         1 GEF         0.0346 
     42 H11         0.6002    0.4646    3.5863 H         1 GEF         0.0346 
     43 H12         3.1440    1.9774    1.3466 H         1 GEF         0.0403 
     44 H13         2.8022    3.0967    2.7094 H         1 GEF         0.0403 
     45 H14         5.1795    1.1737    2.4945 H         1 GEF         0.0539 
     46 H15         5.2333    2.9582    2.2960 H         1 GEF         0.0539 
     47 H16         4.6798    0.2543    4.6159 H         1 GEF         0.0539 
     48 H17         4.3653    1.3559    5.9994 H         1 GEF         0.0539 
     49 H18         2.2862    2.1356    4.9319 H         1 GEF         0.0403 
     50 H19         2.2709    0.3486    5.1137 H         1 GEF         0.0403 
     51 H20         4.2073   -7.9970    3.9134 H         1 GEF         0.0570 
     52 H21         2.5021   -5.0788   -0.2144 H         1 GEF         0.4259 
     53 H22         3.1897   -5.9261   -2.2751 H         1 GEF         0.1698 
     54 H23         2.8147   -7.7129   -3.9398 H         1 GEF         0.1582 
     55 H24         1.4580   -8.4091    0.7838 H         1 GEF         0.1509 
     56 H56         3.7765   -7.9541    1.4873 H         1 GEF         0.0000 
@<TRIPOS>BOND
     1    1    2 1    
     2    1   32 1    
     3    1   33 1    
     4    1   34 1    
     5    2    3 1    
     6    3    8 ar   
     7    3    4 ar   
     8    4    5 ar   
     9    4   35 1    
    10    5   22 ar   
    11    5    6 ar   
    12    6    7 ar   
    13    6   19 ar   
    14    7    8 ar   
    15    7   36 1    
    16    8    9 1    
    17    9   10 1    
    18   10   11 1    
    19   10   37 1    
    20   10   38 1    
    21   11   12 1    
    22   11   39 1    
    23   11   40 1    
    24   12   13 1    
    25   12   41 1    
    26   12   42 1    
    27   13   18 1    
    28   13   14 1    
    29   14   15 1    
    30   14   43 1    
    31   14   44 1    
    32   15   16 1    
    33   15   45 1    
    34   15   46 1    
    35   16   17 1    
    36   17   18 1    
    37   17   47 1    
    38   17   48 1    
    39   18   49 1    
    40   18   50 1    
    41   19   20 ar   
    42   19   23 1    
    43   20   21 ar   
    44   20   56 1    
    45   21   22 ar   
    46   21   51 1    
    47   23   24 1    
    48   23   52 1    
    49   24   29 ar   
    50   24   25 ar   
    51   25   26 ar   
    52   25   53 1    
    53   26   27 ar   
    54   26   54 1    
    55   27   28 ar   
    56   27   31 1    
    57   28   29 ar   
    58   28   30 1    
    59   29   55 1    
@<TRIPOS>SUBSTRUCTURE
     1 GEF         1 GROUP             0       ****    0 ROOT    
@<TRIPOS>MOLECULE
~{N}-(3-chloro-4-fluoro-phenyl)-7-methoxy-6-(3-morpholinopropoxy)quinazolin-4-amine
57   60    1
SMALL
USER_CHARGES


@<TRIPOS>ATOM
      1 C1         -0.1002   -2.1051    5.6392 C.3       1 GEF         0.1189 
      2 O1          1.1895   -1.9793    5.0516 O.3       1 GEF        -0.3507 
      3 C2          1.5743   -2.9699    4.1989 C.ar      1 GEF         0.0948 
      4 C3          2.2530   -4.0830    4.7036 C.ar      1 GEF        -0.1819 
      5 C4          2.6675   -5.1220    3.8739 C.ar      1 GEF         0.4344 
      6 C5          2.3820   -5.0193    2.5026 C.ar      1 GEF        -0.2848 
      7 C6          1.7000   -3.9033    1.9874 C.ar      1 GEF        -0.1134 
      8 C7          1.2972   -2.8797    2.8394 C.ar      1 GEF         0.0884 
      9 O2          0.6330   -1.7950    2.3306 O.3       1 GEF        -0.3429 
     10 C8          1.3179   -1.0276    1.3495 C.3       1 GEF         0.1307 
     11 C9          0.8517    0.4200    1.4459 C.3       1 GEF        -0.0914 
     12 C10         1.1265    1.0393    2.8099 C.3       1 GEF         0.1794 
     13 N1          2.5492    1.0487    3.1440 N.4       1 GEF        -0.7375 
     14 C11         3.2453    2.1290    2.4314 C.3       1 GEF         0.1366 
     15 C12         4.7249    2.1260    2.8050 C.3       1 GEF         0.1273 
     16 O3          4.8817    2.2782    4.2162 O.3       1 GEF        -0.4161 
     17 C13         4.2352    1.2145    4.9163 C.3       1 GEF         0.1273 
     18 C14         2.7439    1.1944    4.5933 C.3       1 GEF         0.1366 
     19 C15         2.8117   -6.0765    1.7055 C.ar      1 GEF         0.6923 
     20 N2          3.4661   -7.1548    2.1764 N.pl3     1 GEF        -0.7530 
     21 C16         3.6829   -7.1434    3.5014 C.ar      1 GEF         0.6683 
     22 N3          3.3190   -6.1849    4.3773 N.ar      1 GEF        -0.7059 
     23 N4          2.5593   -6.0433    0.3114 N.pl3     1 GEF        -0.7159 
     24 C17         2.3463   -7.0562   -0.6370 C.ar      1 GEF         0.1140 
     25 C18         2.7276   -6.8596   -1.9643 C.ar      1 GEF        -0.0777 
     26 C19         2.5166   -7.8660   -2.9068 C.ar      1 GEF        -0.1507 
     27 C20         1.9243   -9.0688   -2.5222 C.ar      1 GEF         0.1281 
     28 C21         1.5430   -9.2653   -1.1948 C.ar      1 GEF        -0.0090 
     29 C22         1.7539   -8.2590   -0.2523 C.ar      1 GEF        -0.1434 
     30 Cl1         0.8095  -10.7469   -0.7144 Cl        1 GEF        -0.0640 
     31 F1          1.7269  -10.0261   -3.4399 F         1 GEF        -0.1244 
     32 H1         -0.2866   -1.2469    6.3016 H         1 GEF         0.0461 
     33 H2         -0.1478   -3.0361    6.2231 H         1 GEF         0.0461 
     34 H3         -0.8632   -2.1296    4.8472 H         1 GEF         0.0461 
     35 H4          2.4609   -4.1359    5.7713 H         1 GEF         0.1701 
     36 H5          1.4750   -3.8159    0.9270 H         1 GEF         0.1458 
     37 H6          2.4014   -1.0834    1.5310 H         1 GEF         0.0505 
     38 H7          1.0927   -1.4262    0.3493 H         1 GEF         0.0505 
     39 H8          1.3752    1.0248    0.6908 H         1 GEF         0.0614 
     40 H9         -0.2326    0.4687    1.2673 H         1 GEF         0.0614 
     41 H10         0.7698    2.0798    2.8187 H         1 GEF         0.0346 
     42 H11         0.6002    0.4646    3.5863 H         1 GEF         0.0346 
     43 H12         3.1440    1.9774    1.3466 H         1 GEF         0.0403 
     44 H13         2.8022    3.0967    2.7094 H         1 GEF         0.0403 
     45 H14         5.1795    1.1737    2.4945 H         1 GEF         0.0539 
     46 H15         5.2333    2.9582    2.2960 H         1 GEF         0.0539 
     47 H16         4.6798    0.2543    4.6159 H         1 GEF         0.0539 
     48 H17         4.3653    1.3559    5.9994 H         1 GEF         0.0539 
     49 H18         2.2862    2.1356    4.9319 H         1 GEF         0.0403 
     50 H19         2.2709    0.3486    5.1137 H         1 GEF         0.0403 
     51 H20         4.2073   -7.9970    3.9134 H         1 GEF         0.0570 
     52 H21         2.5021   -5.0788   -0.2144 H         1 GEF         0.4259 
     53 H22         3.1897   -5.9261   -2.2751 H         1 GEF         0.1698 
     54 H23         2.8147   -7.7129   -3.9398 H         1 GEF         0.1582 
     55 H24         1.4580   -8.4091    0.7838 H         1 GEF         0.1509 
     56 H56         2.9709    0.0842    2.8248 H         1 GEF         0.0000 
     57 H57         3.7765   -7.9541    1.4873 H         1 GEF         0.0000 
@<TRIPOS>BOND
     1    1    2 1    
     2    1   32 1    
     3    1   33 1    
     4    1   34 1    
     5    2    3 1    
     6    3    8 ar   
     7    3    4 ar   
     8    4    5 ar   
     9    4   35 1    
    10    5   22 ar   
    11    5    6 ar   
    12    6    7 ar   
    13    6   19 ar   
    14    7    8 ar   
    15    7   36 1    
    16    8    9 1    
    17    9   10 1    
    18   10   11 1    
    19   10   37 1    
    20   10   38 1    
    21   11   12 1    
    22   11   39 1    
    23   11   40 1    
    24   12   13 1    
    25   12   41 1    
    26   12   42 1    
    27   13   18 1    
    28   13   14 1    
    29   13   56 1    
    30   14   15 1    
    31   14   43 1    
    32   14   44 1    
    33   15   16 1    
    34   15   45 1    
    35   15   46 1    
    36   16   17 1    
    37   17   18 1    
    38   17   47 1    
    39   17   48 1    
    40   18   49 1    
    41   18   50 1    
    42   19   20 ar   
    43   19   23 1    
    44   20   21 ar   
    45   20   57 1    
    46   21   22 ar   
    47   21   51 1    
    48   23   24 1    
    49   23   52 1    
    50   24   29 ar   
    51   24   25 ar   
    52   25   26 ar   
    53   25   53 1    
    54   26   27 ar   
    55   26   54 1    
    56   27   28 ar   
    57   27   31 1    
    58   28   29 ar   
    59   28   30 1    
    60   29   55 1    
@<TRIPOS>SUBSTRUCTURE
     1 GEF         1 GROUP             0       ****    0 ROOT    
@<TRIPOS>MOLECULE
~{N}-(3-chloro-4-fluoro-phenyl)-7-methoxy-6-(3-morpholinopropoxy)quinazolin-4-amine
54   57    1
SMALL
USER_CHARGES


@<TRIPOS>ATOM
      1 C1         -0.0976   -2.1021    5.6386 C.3       1 GEF         0.1189 
      2 O1          1.1923   -1.9778    5.0511 O.3       1 GEF        -0.3507 
      3 C2          1.5760   -2.9690    4.1986 C.ar      1 GEF         0.0948 
      4 C3          2.2524   -4.0833    4.7037 C.ar      1 GEF        -0.1819 
      5 C4          2.6669   -5.1223    3.8740 C.ar      1 GEF         0.4344 
      6 C5          2.3820   -5.0193    2.5026 C.ar      1 GEF        -0.2848 
      7 C6          1.7010   -3.9028    1.9872 C.ar      1 GEF        -0.1134 
      8 C7          1.2992   -2.8786    2.8391 C.ar      1 GEF         0.0884 
      9 O2          0.6360   -1.7934    2.3301 O.3       1 GEF        -0.3429 
     10 C8          1.3215   -1.0268    1.3488 C.3       1 GEF         0.1307 
     11 C9          0.8567    0.4212    1.4449 C.3       1 GEF        -0.0914 
     12 C10         1.1322    1.0405    2.8088 C.3       1 GEF         0.1794 
     13 N1          2.5549    1.0487    3.1428 N.3       1 GEF        -0.7375 
     14 C11         3.2520    2.1282    2.4299 C.3       1 GEF         0.1366 
     15 C12         4.7316    2.1239    2.8034 C.3       1 GEF         0.1273 
     16 O3          4.8886    2.2762    4.2146 O.3       1 GEF        -0.4161 
     17 C13         4.2412    1.2132    4.9150 C.3       1 GEF         0.1273 
     18 C14         2.7499    1.1945    4.5921 C.3       1 GEF         0.1366 
     19 C15         2.8114   -6.0767    1.7056 C.ar      1 GEF         0.6923 
     20 N2          3.4650   -7.1554    2.1766 N.2       1 GEF        -0.7530 
     21 C16         3.6815   -7.1441    3.5016 C.ar      1 GEF         0.6683 
     22 N3          3.3178   -6.1855    4.3775 N.ar      1 GEF        -0.7059 
     23 N4          2.5593   -6.0433    0.3114 N.2       1 GEF        -0.7159 
     24 C17         2.3463   -7.0561   -0.6371 C.ar      1 GEF         0.1140 
     25 C18         2.7279   -6.8595   -1.9643 C.ar      1 GEF        -0.0777 
     26 C19         2.5169   -7.8657   -2.9070 C.ar      1 GEF        -0.1507 
     27 C20         1.9243   -9.0685   -2.5226 C.ar      1 GEF         0.1281 
     28 C21         1.5427   -9.2650   -1.1953 C.ar      1 GEF        -0.0090 
     29 C22         1.7536   -8.2588   -0.2526 C.ar      1 GEF        -0.1434 
     30 Cl1         0.8089  -10.7465   -0.7152 Cl        1 GEF        -0.0640 
     31 F1          1.7270  -10.0257   -3.4404 F         1 GEF        -0.1244 
     32 H1         -0.2832   -1.2436    6.3008 H         1 GEF         0.0461 
     33 H2         -0.1464   -3.0330    6.2227 H         1 GEF         0.0461 
     34 H3         -0.8605   -2.1258    4.8465 H         1 GEF         0.0461 
     35 H4          2.4507   -4.1469    5.6818 H         1 GEF         0.1701 
     36 H5          1.5053   -3.8446    1.0083 H         1 GEF         0.1458 
     37 H6          2.4050   -1.0836    1.5303 H         1 GEF         0.0505 
     38 H7          1.0959   -1.4254    0.3487 H         1 GEF         0.0505 
     39 H8          1.3807    1.0254    0.6897 H         1 GEF         0.0614 
     40 H9         -0.2276    0.4709    1.2664 H         1 GEF         0.0614 
     41 H10         0.7764    2.0814    2.8175 H         1 GEF         0.0346 
     42 H11         0.6054    0.4665    3.5853 H         1 GEF         0.0346 
     43 H12         3.1505    1.9765    1.3452 H         1 GEF         0.0403 
     44 H13         2.8098    3.0963    2.7078 H         1 GEF         0.0403 
     45 H14         5.1853    1.1711    2.4931 H         1 GEF         0.0539 
     46 H15         5.2407    2.9554    2.2943 H         1 GEF         0.0539 
     47 H16         4.6849    0.2525    4.6147 H         1 GEF         0.0539 
     48 H17         4.3716    1.3547    5.9980 H         1 GEF         0.0539 
     49 H18         2.2930    2.1361    4.9306 H         1 GEF         0.0403 
     50 H19         2.2761    0.3492    5.1127 H         1 GEF         0.0403 
     51 H20         4.1683   -7.9564    3.8230 H         1 GEF         0.0570 
     52 H22         3.1902   -5.9260   -2.2750 H         1 GEF         0.1698 
     53 H23         2.8153   -7.7126   -3.9399 H         1 GEF         0.1582 
     54 H24         1.4575   -8.4090    0.7834 H         1 GEF         0.1509 
@<TRIPOS>BOND
     1    1    2 1    
     2    1   32 1    
     3    1   33 1    
     4    1   34 1    
     5    2    3 1    
     6    3    8 ar   
     7    3    4 ar   
     8    4   35 1    
     9    4    5 ar   
    10    5    6 ar   
    11    5   22 ar   
    12    6   19 ar   
    13    6    7 ar   
    14    7   36 1    
    15    7    8 ar   
    16    8    9 1    
    17    9   10 1    
    18   10   11 1    
    19   10   37 1    
    20   10   38 1    
    21   11   12 1    
    22   11   39 1    
    23   11   40 1    
    24   12   13 1    
    25   12   41 1    
    26   12   42 1    
    27   13   18 1    
    28   13   14 1    
    29   14   15 1    
    30   14   43 1    
    31   14   44 1    
    32   15   16 1    
    33   15   45 1    
    34   15   46 1    
    35   16   17 1    
    36   17   18 1    
    37   17   47 1    
    38   17   48 1    
    39   18   49 1    
    40   18   50 1    
    41   19   23 2    
    42   19   20 ar   
    43   20   21 ar   
    44   21   22 ar   
    45   21   51 1    
    46   23   24 1    
    47   24   29 ar   
    48   24   25 ar   
    49   25   26 ar   
    50   25   52 1    
    51   26   27 ar   
    52   26   53 1    
    53   27   28 ar   
    54   27   31 1    
    55   28   29 ar   
    56   28   30 1    
    57   29   54 1    
@<TRIPOS>SUBSTRUCTURE
     1 GEF         1 GROUP             0       ****    0 ROOT    
@<TRIPOS>MOLECULE
~{N}-(3-chloro-4-fluoro-phenyl)-7-methoxy-6-(3-morpholinopropoxy)quinazolin-4-amine
54   57    1
SMALL
USER_CHARGES


@<TRIPOS>ATOM
      1 C1         -0.0976   -2.1021    5.6386 C.3       1 GEF         0.1189 
      2 O1          1.1923   -1.9778    5.0511 O.3       1 GEF        -0.3507 
      3 C2          1.5760   -2.9690    4.1986 C.ar      1 GEF         0.0948 
      4 C3          2.2524   -4.0833    4.7037 C.ar      1 GEF        -0.1819 
      5 C4          2.6669   -5.1223    3.8740 C.ar      1 GEF         0.4344 
      6 C5          2.3820   -5.0193    2.5026 C.ar      1 GEF        -0.2848 
      7 C6          1.7010   -3.9028    1.9872 C.ar      1 GEF        -0.1134 
      8 C7          1.2992   -2.8786    2.8391 C.ar      1 GEF         0.0884 
      9 O2          0.6360   -1.7934    2.3301 O.3       1 GEF        -0.3429 
     10 C8          1.3215   -1.0268    1.3488 C.3       1 GEF         0.1307 
     11 C9          0.8567    0.4212    1.4449 C.3       1 GEF        -0.0914 
     12 C10         1.1322    1.0405    2.8088 C.3       1 GEF         0.1794 
     13 N1          2.5549    1.0487    3.1428 N.3       1 GEF        -0.7375 
     14 C11         3.2520    2.1282    2.4299 C.3       1 GEF         0.1366 
     15 C12         4.7316    2.1239    2.8034 C.3       1 GEF         0.1273 
     16 O3          4.8886    2.2762    4.2146 O.3       1 GEF        -0.4161 
     17 C13         4.2412    1.2132    4.9150 C.3       1 GEF         0.1273 
     18 C14         2.7499    1.1945    4.5921 C.3       1 GEF         0.1366 
     19 C15         2.8114   -6.0767    1.7056 C.ar      1 GEF         0.6923 
     20 N2          3.4650   -7.1554    2.1766 N.2       1 GEF        -0.7530 
     21 C16         3.6815   -7.1441    3.5016 C.ar      1 GEF         0.6683 
     22 N3          3.3178   -6.1855    4.3775 N.ar      1 GEF        -0.7059 
     23 N4          2.5593   -6.0433    0.3114 N.2       1 GEF        -0.7159 
     24 C17         2.4353   -4.9859   -0.6037 C.ar      1 GEF         0.1140 
     25 C18         1.6116   -5.1241   -1.7209 C.ar      1 GEF        -0.0777 
     26 C19         1.4877   -4.0735   -2.6301 C.ar      1 GEF        -0.1507 
     27 C20         2.1874   -2.8849   -2.4222 C.ar      1 GEF         0.1281 
     28 C21         3.0111   -2.7469   -1.3048 C.ar      1 GEF        -0.0090 
     29 C22         3.1351   -3.7974   -0.3957 C.ar      1 GEF        -0.1434 
     30 Cl1         3.8790   -1.2831   -1.0439 Cl        1 GEF        -0.0640 
     31 F1          2.0591   -1.8846   -3.3057 F         1 GEF        -0.1244 
     32 H1         -0.2832   -1.2436    6.3008 H         1 GEF         0.0461 
     33 H2         -0.1464   -3.0330    6.2227 H         1 GEF         0.0461 
     34 H3         -0.8605   -2.1258    4.8465 H         1 GEF         0.0461 
     35 H4          2.4507   -4.1469    5.6818 H         1 GEF         0.1701 
     36 H5          1.5053   -3.8446    1.0083 H         1 GEF         0.1458 
     37 H6          2.4050   -1.0836    1.5303 H         1 GEF         0.0505 
     38 H7          1.0959   -1.4254    0.3487 H         1 GEF         0.0505 
     39 H8          1.3807    1.0254    0.6897 H         1 GEF         0.0614 
     40 H9         -0.2276    0.4709    1.2664 H         1 GEF         0.0614 
     41 H10         0.7764    2.0814    2.8175 H         1 GEF         0.0346 
     42 H11         0.6054    0.4665    3.5853 H         1 GEF         0.0346 
     43 H12         3.1505    1.9765    1.3452 H         1 GEF         0.0403 
     44 H13         2.8098    3.0963    2.7078 H         1 GEF         0.0403 
     45 H14         5.1853    1.1711    2.4931 H         1 GEF         0.0539 
     46 H15         5.2407    2.9554    2.2943 H         1 GEF         0.0539 
     47 H16         4.6849    0.2525    4.6147 H         1 GEF         0.0539 
     48 H17         4.3716    1.3547    5.9980 H         1 GEF         0.0539 
     49 H18         2.2930    2.1361    4.9306 H         1 GEF         0.0403 
     50 H19         2.2761    0.3492    5.1127 H         1 GEF         0.0403 
     51 H20         4.1683   -7.9564    3.8230 H         1 GEF         0.0570 
     52 H22         1.0620   -6.0460   -1.8930 H         1 GEF         0.1698 
     53 H23         0.8455   -4.1811   -3.4992 H         1 GEF         0.1582 
     54 H24         3.7764   -3.6929    0.4769 H         1 GEF         0.1509 
@<TRIPOS>BOND
     1    1    2 1    
     2    1   32 1    
     3    1   33 1    
     4    1   34 1    
     5    2    3 1    
     6    3    8 ar   
     7    3    4 ar   
     8    4   35 1    
     9    4    5 ar   
    10    5    6 ar   
    11    5   22 ar   
    12    6   19 ar   
    13    6    7 ar   
    14    7   36 1    
    15    7    8 ar   
    16    8    9 1    
    17    9   10 1    
    18   10   11 1    
    19   10   37 1    
    20   10   38 1    
    21   11   12 1    
    22   11   39 1    
    23   11   40 1    
    24   12   13 1    
    25   12   41 1    
    26   12   42 1    
    27   13   18 1    
    28   13   14 1    
    29   14   15 1    
    30   14   43 1    
    31   14   44 1    
    32   15   16 1    
    33   15   45 1    
    34   15   46 1    
    35   16   17 1    
    36   17   18 1    
    37   17   47 1    
    38   17   48 1    
    39   18   49 1    
    40   18   50 1    
    41   19   23 2    
    42   19   20 ar   
    43   20   21 ar   
    44   21   22 ar   
    45   21   51 1    
    46   23   24 1    
    47   24   29 ar   
    48   24   25 ar   
    49   25   26 ar   
    50   25   52 1    
    51   26   27 ar   
    52   26   53 1    
    53   27   28 ar   
    54   27   31 1    
    55   28   29 ar   
    56   28   30 1    
    57   29   54 1    
@<TRIPOS>SUBSTRUCTURE
     1 GEF         1 GROUP             0       ****    0 ROOT    
@<TRIPOS>MOLECULE
~{N}-(3-chloro-4-fluoro-phenyl)-7-methoxy-6-(3-morpholinopropoxy)quinazolin-4-amine
55   58    1
SMALL
USER_CHARGES


@<TRIPOS>ATOM
      1 C1         -0.0976   -2.1021    5.6386 C.3       1 GEF         0.1189 
      2 O1          1.1923   -1.9778    5.0511 O.3       1 GEF        -0.3507 
      3 C2          1.5760   -2.9690    4.1986 C.ar      1 GEF         0.0948 
      4 C3          2.2524   -4.0833    4.7037 C.ar      1 GEF        -0.1819 
      5 C4          2.6669   -5.1223    3.8740 C.ar      1 GEF         0.4344 
      6 C5          2.3820   -5.0193    2.5026 C.ar      1 GEF        -0.2848 
      7 C6          1.7010   -3.9028    1.9872 C.ar      1 GEF        -0.1134 
      8 C7          1.2992   -2.8786    2.8391 C.ar      1 GEF         0.0884 
      9 O2          0.6360   -1.7934    2.3301 O.3       1 GEF        -0.3429 
     10 C8          1.3215   -1.0268    1.3488 C.3       1 GEF         0.1307 
     11 C9          0.8567    0.4212    1.4449 C.3       1 GEF        -0.0914 
     12 C10         1.1322    1.0405    2.8088 C.3       1 GEF         0.1794 
     13 N1          2.5549    1.0487    3.1428 N.3       1 GEF        -0.7375 
     14 C11         3.2520    2.1282    2.4299 C.3       1 GEF         0.1366 
     15 C12         4.7316    2.1239    2.8034 C.3       1 GEF         0.1273 
     16 O3          4.8886    2.2762    4.2146 O.3       1 GEF        -0.4161 
     17 C13         4.2412    1.2132    4.9150 C.3       1 GEF         0.1273 
     18 C14         2.7499    1.1945    4.5921 C.3       1 GEF         0.1366 
     19 C15         2.8114   -6.0767    1.7056 C.ar      1 GEF         0.6923 
     20 N2          3.4650   -7.1554    2.1766 N.pl3     1 GEF        -0.7530 
     21 C16         3.6815   -7.1441    3.5016 C.ar      1 GEF         0.6683 
     22 N3          3.3178   -6.1855    4.3775 N.2       1 GEF        -0.7059 
     23 N4          2.5593   -6.0433    0.3114 N.2       1 GEF        -0.7159 
     24 C17         2.3463   -7.0561   -0.6371 C.ar      1 GEF         0.1140 
     25 C18         2.7279   -6.8595   -1.9643 C.ar      1 GEF        -0.0777 
     26 C19         2.5169   -7.8657   -2.9070 C.ar      1 GEF        -0.1507 
     27 C20         1.9243   -9.0685   -2.5226 C.ar      1 GEF         0.1281 
     28 C21         1.5427   -9.2650   -1.1953 C.ar      1 GEF        -0.0090 
     29 C22         1.7536   -8.2588   -0.2526 C.ar      1 GEF        -0.1434 
     30 Cl1         0.8089  -10.7465   -0.7152 Cl        1 GEF        -0.0640 
     31 F1          1.7270  -10.0257   -3.4404 F         1 GEF        -0.1244 
     32 H1         -0.2832   -1.2436    6.3008 H         1 GEF         0.0461 
     33 H2         -0.1464   -3.0330    6.2227 H         1 GEF         0.0461 
     34 H3         -0.8605   -2.1258    4.8465 H         1 GEF         0.0461 
     35 H4          2.4507   -4.1469    5.6818 H         1 GEF         0.1701 
     36 H5          1.5053   -3.8446    1.0083 H         1 GEF         0.1458 
     37 H6          2.4050   -1.0836    1.5303 H         1 GEF         0.0505 
     38 H7          1.0959   -1.4254    0.3487 H         1 GEF         0.0505 
     39 H8          1.3807    1.0254    0.6897 H         1 GEF         0.0614 
     40 H9         -0.2276    0.4709    1.2664 H         1 GEF         0.0614 
     41 H10         0.7764    2.0814    2.8175 H         1 GEF         0.0346 
     42 H11         0.6054    0.4665    3.5853 H         1 GEF         0.0346 
     43 H12         3.1505    1.9765    1.3452 H         1 GEF         0.0403 
     44 H13         2.8098    3.0963    2.7078 H         1 GEF         0.0403 
     45 H14         5.1853    1.1711    2.4931 H         1 GEF         0.0539 
     46 H15         5.2407    2.9554    2.2943 H         1 GEF         0.0539 
     47 H16         4.6849    0.2525    4.6147 H         1 GEF         0.0539 
     48 H17         4.3716    1.3547    5.9980 H         1 GEF         0.0539 
     49 H18         2.2930    2.1361    4.9306 H         1 GEF         0.0403 
     50 H19         2.2761    0.3492    5.1127 H         1 GEF         0.0403 
     51 H20         4.1683   -7.9564    3.8230 H         1 GEF         0.0570 
     52 H21         3.8146   -8.0034    1.5694 H         1 GEF         0.4259 
     53 H22         3.1902   -5.9260   -2.2750 H         1 GEF         0.1698 
     54 H23         2.8153   -7.7126   -3.9399 H         1 GEF         0.1582 
     55 H24         1.4575   -8.4090    0.7834 H         1 GEF         0.1509 
@<TRIPOS>BOND
     1    1    2 1    
     2    1   32 1    
     3    1   33 1    
     4    1   34 1    
     5    2    3 1    
     6    3    8 ar   
     7    3    4 ar   
     8    4   35 1    
     9    4    5 ar   
    10    5    6 ar   
    11    5   22 ar   
    12    6   19 ar   
    13    6    7 ar   
    14    7   36 1    
    15    7    8 ar   
    16    8    9 1    
    17    9   10 1    
    18   10   11 1    
    19   10   37 1    
    20   10   38 1    
    21   11   12 1    
    22   11   39 1    
    23   11   40 1    
    24   12   13 1    
    25   12   41 1    
    26   12   42 1    
    27   13   18 1    
    28   13   14 1    
    29   14   15 1    
    30   14   43 1    
    31   14   44 1    
    32   15   16 1    
    33   15   45 1    
    34   15   46 1    
    35   16   17 1    
    36   17   18 1    
    37   17   47 1    
    38   17   48 1    
    39   18   49 1    
    40   18   50 1    
    41   19   23 2    
    42   19   20 ar   
    43   20   21 ar   
    44   20   52 1    
    45   21   22 ar   
    46   21   51 1    
    47   23   24 1    
    48   24   29 ar   
    49   24   25 ar   
    50   25   26 ar   
    51   25   53 1    
    52   26   27 ar   
    53   26   54 1    
    54   27   28 ar   
    55   27   31 1    
    56   28   29 ar   
    57   28   30 1    
    58   29   55 1    
@<TRIPOS>SUBSTRUCTURE
     1 GEF         1 GROUP             0       ****    0 ROOT    
@<TRIPOS>MOLECULE
~{N}-(3-chloro-4-fluoro-phenyl)-7-methoxy-6-(3-morpholinopropoxy)quinazolin-4-amine
55   58    1
SMALL
USER_CHARGES


@<TRIPOS>ATOM
      1 C1         -0.0976   -2.1021    5.6386 C.3       1 GEF         0.1189 
      2 O1          1.1923   -1.9778    5.0511 O.3       1 GEF        -0.3507 
      3 C2          1.5760   -2.9690    4.1986 C.ar      1 GEF         0.0948 
      4 C3          2.2524   -4.0833    4.7037 C.ar      1 GEF        -0.1819 
      5 C4          2.6669   -5.1223    3.8740 C.ar      1 GEF         0.4344 
      6 C5          2.3820   -5.0193    2.5026 C.ar      1 GEF        -0.2848 
      7 C6          1.7010   -3.9028    1.9872 C.ar      1 GEF        -0.1134 
      8 C7          1.2992   -2.8786    2.8391 C.ar      1 GEF         0.0884 
      9 O2          0.6360   -1.7934    2.3301 O.3       1 GEF        -0.3429 
     10 C8          1.3215   -1.0268    1.3488 C.3       1 GEF         0.1307 
     11 C9          0.8567    0.4212    1.4449 C.3       1 GEF        -0.0914 
     12 C10         1.1322    1.0405    2.8088 C.3       1 GEF         0.1794 
     13 N1          2.5549    1.0487    3.1428 N.3       1 GEF        -0.7375 
     14 C11         3.2520    2.1282    2.4299 C.3       1 GEF         0.1366 
     15 C12         4.7316    2.1239    2.8034 C.3       1 GEF         0.1273 
     16 O3          4.8886    2.2762    4.2146 O.3       1 GEF        -0.4161 
     17 C13         4.2412    1.2132    4.9150 C.3       1 GEF         0.1273 
     18 C14         2.7499    1.1945    4.5921 C.3       1 GEF         0.1366 
     19 C15         2.8114   -6.0767    1.7056 C.ar      1 GEF         0.6923 
     20 N2          3.4650   -7.1554    2.1766 N.pl3     1 GEF        -0.7530 
     21 C16         3.6815   -7.1441    3.5016 C.ar      1 GEF         0.6683 
     22 N3          3.3178   -6.1855    4.3775 N.2       1 GEF        -0.7059 
     23 N4          2.5593   -6.0433    0.3114 N.2       1 GEF        -0.7159 
     24 C17         2.4353   -4.9859   -0.6037 C.ar      1 GEF         0.1140 
     25 C18         1.6116   -5.1241   -1.7209 C.ar      1 GEF        -0.0777 
     26 C19         1.4877   -4.0735   -2.6301 C.ar      1 GEF        -0.1507 
     27 C20         2.1874   -2.8849   -2.4222 C.ar      1 GEF         0.1281 
     28 C21         3.0111   -2.7469   -1.3048 C.ar      1 GEF        -0.0090 
     29 C22         3.1351   -3.7974   -0.3957 C.ar      1 GEF        -0.1434 
     30 Cl1         3.8790   -1.2831   -1.0439 Cl        1 GEF        -0.0640 
     31 F1          2.0591   -1.8846   -3.3057 F         1 GEF        -0.1244 
     32 H1         -0.2832   -1.2436    6.3008 H         1 GEF         0.0461 
     33 H2         -0.1464   -3.0330    6.2227 H         1 GEF         0.0461 
     34 H3         -0.8605   -2.1258    4.8465 H         1 GEF         0.0461 
     35 H4          2.4507   -4.1469    5.6818 H         1 GEF         0.1701 
     36 H5          1.5053   -3.8446    1.0083 H         1 GEF         0.1458 
     37 H6          2.4050   -1.0836    1.5303 H         1 GEF         0.0505 
     38 H7          1.0959   -1.4254    0.3487 H         1 GEF         0.0505 
     39 H8          1.3807    1.0254    0.6897 H         1 GEF         0.0614 
     40 H9         -0.2276    0.4709    1.2664 H         1 GEF         0.0614 
     41 H10         0.7764    2.0814    2.8175 H         1 GEF         0.0346 
     42 H11         0.6054    0.4665    3.5853 H         1 GEF         0.0346 
     43 H12         3.1505    1.9765    1.3452 H         1 GEF         0.0403 
     44 H13         2.8098    3.0963    2.7078 H         1 GEF         0.0403 
     45 H14         5.1853    1.1711    2.4931 H         1 GEF         0.0539 
     46 H15         5.2407    2.9554    2.2943 H         1 GEF         0.0539 
     47 H16         4.6849    0.2525    4.6147 H         1 GEF         0.0539 
     48 H17         4.3716    1.3547    5.9980 H         1 GEF         0.0539 
     49 H18         2.2930    2.1361    4.9306 H         1 GEF         0.0403 
     50 H19         2.2761    0.3492    5.1127 H         1 GEF         0.0403 
     51 H20         4.1683   -7.9564    3.8230 H         1 GEF         0.0570 
     52 H21         3.8146   -8.0034    1.5694 H         1 GEF         0.4259 
     53 H22         1.0620   -6.0460   -1.8930 H         1 GEF         0.1698 
     54 H23         0.8455   -4.1811   -3.4992 H         1 GEF         0.1582 
     55 H24         3.7764   -3.6929    0.4769 H         1 GEF         0.1509 
@<TRIPOS>BOND
     1    1    2 1    
     2    1   32 1    
     3    1   33 1    
     4    1   34 1    
     5    2    3 1    
     6    3    8 ar   
     7    3    4 ar   
     8    4   35 1    
     9    4    5 ar   
    10    5    6 ar   
    11    5   22 ar   
    12    6   19 ar   
    13    6    7 ar   
    14    7   36 1    
    15    7    8 ar   
    16    8    9 1    
    17    9   10 1    
    18   10   11 1    
    19   10   37 1    
    20   10   38 1    
    21   11   12 1    
    22   11   39 1    
    23   11   40 1    
    24   12   13 1    
    25   12   41 1    
    26   12   42 1    
    27   13   18 1    
    28   13   14 1    
    29   14   15 1    
    30   14   43 1    
    31   14   44 1    
    32   15   16 1    
    33   15   45 1    
    34   15   46 1    
    35   16   17 1    
    36   17   18 1    
    37   17   47 1    
    38   17   48 1    
    39   18   49 1    
    40   18   50 1    
    41   19   23 2    
    42   19   20 ar   
    43   20   21 ar   
    44   20   52 1    
    45   21   22 ar   
    46   21   51 1    
    47   23   24 1    
    48   24   29 ar   
    49   24   25 ar   
    50   25   26 ar   
    51   25   53 1    
    52   26   27 ar   
    53   26   54 1    
    54   27   28 ar   
    55   27   31 1    
    56   28   29 ar   
    57   28   30 1    
    58   29   55 1    
@<TRIPOS>SUBSTRUCTURE
     1 GEF         1 GROUP             0       ****    0 ROOT    
@<TRIPOS>MOLECULE
~{N}-(3-chloro-4-fluoro-phenyl)-7-methoxy-6-(3-morpholinopropoxy)quinazolin-4-amine
55   58    1
SMALL
USER_CHARGES


@<TRIPOS>ATOM
      1 C1         -0.0976   -2.1021    5.6386 C.3       1 GEF         0.1189 
      2 O1          1.1923   -1.9778    5.0511 O.3       1 GEF        -0.3507 
      3 C2          1.5760   -2.9690    4.1986 C.ar      1 GEF         0.0948 
      4 C3          2.2524   -4.0833    4.7037 C.ar      1 GEF        -0.1819 
      5 C4          2.6669   -5.1223    3.8740 C.ar      1 GEF         0.4344 
      6 C5          2.3820   -5.0193    2.5026 C.ar      1 GEF        -0.2848 
      7 C6          1.7010   -3.9028    1.9872 C.ar      1 GEF        -0.1134 
      8 C7          1.2992   -2.8786    2.8391 C.ar      1 GEF         0.0884 
      9 O2          0.6360   -1.7934    2.3301 O.3       1 GEF        -0.3429 
     10 C8          1.3215   -1.0268    1.3488 C.3       1 GEF         0.1307 
     11 C9          0.8567    0.4212    1.4449 C.3       1 GEF        -0.0914 
     12 C10         1.1322    1.0405    2.8088 C.3       1 GEF         0.1794 
     13 N1          2.5549    1.0487    3.1428 N.4       1 GEF        -0.7375 
     14 C11         3.2520    2.1282    2.4299 C.3       1 GEF         0.1366 
     15 C12         4.7316    2.1239    2.8034 C.3       1 GEF         0.1273 
     16 O3          4.8886    2.2762    4.2146 O.3       1 GEF        -0.4161 
     17 C13         4.2412    1.2132    4.9150 C.3       1 GEF         0.1273 
     18 C14         2.7499    1.1945    4.5921 C.3       1 GEF         0.1366 
     19 C15         2.8114   -6.0767    1.7056 C.ar      1 GEF         0.6923 
     20 N2          3.4650   -7.1554    2.1766 N.2       1 GEF        -0.7530 
     21 C16         3.6815   -7.1441    3.5016 C.ar      1 GEF         0.6683 
     22 N3          3.3178   -6.1855    4.3775 N.ar      1 GEF        -0.7059 
     23 N4          2.5593   -6.0433    0.3114 N.2       1 GEF        -0.7159 
     24 C17         2.4353   -4.9859   -0.6037 C.ar      1 GEF         0.1140 
     25 C18         1.6116   -5.1241   -1.7209 C.ar      1 GEF        -0.0777 
     26 C19         1.4877   -4.0735   -2.6301 C.ar      1 GEF        -0.1507 
     27 C20         2.1874   -2.8849   -2.4222 C.ar      1 GEF         0.1281 
     28 C21         3.0111   -2.7469   -1.3048 C.ar      1 GEF        -0.0090 
     29 C22         3.1351   -3.7974   -0.3957 C.ar      1 GEF        -0.1434 
     30 Cl1         3.8790   -1.2831   -1.0439 Cl        1 GEF        -0.0640 
     31 F1          2.0591   -1.8846   -3.3057 F         1 GEF        -0.1244 
     32 H1         -0.2832   -1.2436    6.3008 H         1 GEF         0.0461 
     33 H2         -0.1464   -3.0330    6.2227 H         1 GEF         0.0461 
     34 H3         -0.8605   -2.1258    4.8465 H         1 GEF         0.0461 
     35 H4          2.4507   -4.1469    5.6818 H         1 GEF         0.1701 
     36 H5          1.5053   -3.8446    1.0083 H         1 GEF         0.1458 
     37 H6          2.4050   -1.0836    1.5303 H         1 GEF         0.0505 
     38 H7          1.0959   -1.4254    0.3487 H         1 GEF         0.0505 
     39 H8          1.3807    1.0254    0.6897 H         1 GEF         0.0614 
     40 H9         -0.2276    0.4709    1.2664 H         1 GEF         0.0614 
     41 H10         0.7764    2.0814    2.8175 H         1 GEF         0.0346 
     42 H11         0.6054    0.4665    3.5853 H         1 GEF         0.0346 
     43 H12         3.1505    1.9765    1.3452 H         1 GEF         0.0403 
     44 H13         2.8098    3.0963    2.7078 H         1 GEF         0.0403 
     45 H14         5.1853    1.1711    2.4931 H         1 GEF         0.0539 
     46 H15         5.2407    2.9554    2.2943 H         1 GEF         0.0539 
     47 H16         4.6849    0.2525    4.6147 H         1 GEF         0.0539 
     48 H17         4.3716    1.3547    5.9980 H         1 GEF         0.0539 
     49 H18         2.2930    2.1361    4.9306 H         1 GEF         0.0403 
     50 H19         2.2761    0.3492    5.1127 H         1 GEF         0.0403 
     51 H20         4.1683   -7.9564    3.8230 H         1 GEF         0.0570 
     52 H22         1.0620   -6.0460   -1.8930 H         1 GEF         0.1698 
     53 H23         0.8455   -4.1811   -3.4992 H         1 GEF         0.1582 
     54 H24         3.7764   -3.6929    0.4769 H         1 GEF         0.1509 
     55 H55         2.9757    0.0837    2.8238 H         1 GEF         0.0000 
@<TRIPOS>BOND
     1    1    2 1    
     2    1   32 1    
     3    1   33 1    
     4    1   34 1    
     5    2    3 1    
     6    3    8 ar   
     7    3    4 ar   
     8    4   35 1    
     9    4    5 ar   
    10    5    6 ar   
    11    5   22 ar   
    12    6   19 ar   
    13    6    7 ar   
    14    7   36 1    
    15    7    8 ar   
    16    8    9 1    
    17    9   10 1    
    18   10   11 1    
    19   10   37 1    
    20   10   38 1    
    21   11   12 1    
    22   11   39 1    
    23   11   40 1    
    24   12   13 1    
    25   12   41 1    
    26   12   42 1    
    27   13   18 1    
    28   13   14 1    
    29   13   55 1    
    30   14   15 1    
    31   14   43 1    
    32   14   44 1    
    33   15   16 1    
    34   15   45 1    
    35   15   46 1    
    36   16   17 1    
    37   17   18 1    
    38   17   47 1    
    39   17   48 1    
    40   18   49 1    
    41   18   50 1    
    42   19   23 2    
    43   19   20 ar   
    44   20   21 ar   
    45   21   22 ar   
    46   21   51 1    
    47   23   24 1    
    48   24   29 ar   
    49   24   25 ar   
    50   25   26 ar   
    51   25   52 1    
    52   26   27 ar   
    53   26   53 1    
    54   27   28 ar   
    55   27   31 1    
    56   28   29 ar   
    57   28   30 1    
    58   29   54 1    
@<TRIPOS>SUBSTRUCTURE
     1 GEF         1 GROUP             0       ****    0 ROOT    
@<TRIPOS>MOLECULE
~{N}-(3-chloro-4-fluoro-phenyl)-7-methoxy-6-(3-morpholinopropoxy)quinazolin-4-amine
55   58    1
SMALL
USER_CHARGES


@<TRIPOS>ATOM
      1 C1         -0.0976   -2.1021    5.6386 C.3       1 GEF         0.1189 
      2 O1          1.1923   -1.9778    5.0511 O.3       1 GEF        -0.3507 
      3 C2          1.5760   -2.9690    4.1986 C.ar      1 GEF         0.0948 
      4 C3          2.2524   -4.0833    4.7037 C.ar      1 GEF        -0.1819 
      5 C4          2.6669   -5.1223    3.8740 C.ar      1 GEF         0.4344 
      6 C5          2.3820   -5.0193    2.5026 C.ar      1 GEF        -0.2848 
      7 C6          1.7010   -3.9028    1.9872 C.ar      1 GEF        -0.1134 
      8 C7          1.2992   -2.8786    2.8391 C.ar      1 GEF         0.0884 
      9 O2          0.6360   -1.7934    2.3301 O.3       1 GEF        -0.3429 
     10 C8          1.3215   -1.0268    1.3488 C.3       1 GEF         0.1307 
     11 C9          0.8567    0.4212    1.4449 C.3       1 GEF        -0.0914 
     12 C10         1.1322    1.0405    2.8088 C.3       1 GEF         0.1794 
     13 N1          2.5549    1.0487    3.1428 N.4       1 GEF        -0.7375 
     14 C11         3.2520    2.1282    2.4299 C.3       1 GEF         0.1366 
     15 C12         4.7316    2.1239    2.8034 C.3       1 GEF         0.1273 
     16 O3          4.8886    2.2762    4.2146 O.3       1 GEF        -0.4161 
     17 C13         4.2412    1.2132    4.9150 C.3       1 GEF         0.1273 
     18 C14         2.7499    1.1945    4.5921 C.3       1 GEF         0.1366 
     19 C15         2.8114   -6.0767    1.7056 C.ar      1 GEF         0.6923 
     20 N2          3.4650   -7.1554    2.1766 N.2       1 GEF        -0.7530 
     21 C16         3.6815   -7.1441    3.5016 C.ar      1 GEF         0.6683 
     22 N3          3.3178   -6.1855    4.3775 N.ar      1 GEF        -0.7059 
     23 N4          2.5593   -6.0433    0.3114 N.2       1 GEF        -0.7159 
     24 C17         2.3463   -7.0561   -0.6371 C.ar      1 GEF         0.1140 
     25 C18         2.7279   -6.8595   -1.9643 C.ar      1 GEF        -0.0777 
     26 C19         2.5169   -7.8657   -2.9070 C.ar      1 GEF        -0.1507 
     27 C20         1.9243   -9.0685   -2.5226 C.ar      1 GEF         0.1281 
     28 C21         1.5427   -9.2650   -1.1953 C.ar      1 GEF        -0.0090 
     29 C22         1.7536   -8.2588   -0.2526 C.ar      1 GEF        -0.1434 
     30 Cl1         0.8089  -10.7465   -0.7152 Cl        1 GEF        -0.0640 
     31 F1          1.7270  -10.0257   -3.4404 F         1 GEF        -0.1244 
     32 H1         -0.2832   -1.2436    6.3008 H         1 GEF         0.0461 
     33 H2         -0.1464   -3.0330    6.2227 H         1 GEF         0.0461 
     34 H3         -0.8605   -2.1258    4.8465 H         1 GEF         0.0461 
     35 H4          2.4507   -4.1469    5.6818 H         1 GEF         0.1701 
     36 H5          1.5053   -3.8446    1.0083 H         1 GEF         0.1458 
     37 H6          2.4050   -1.0836    1.5303 H         1 GEF         0.0505 
     38 H7          1.0959   -1.4254    0.3487 H         1 GEF         0.0505 
     39 H8          1.3807    1.0254    0.6897 H         1 GEF         0.0614 
     40 H9         -0.2276    0.4709    1.2664 H         1 GEF         0.0614 
     41 H10         0.7764    2.0814    2.8175 H         1 GEF         0.0346 
     42 H11         0.6054    0.4665    3.5853 H         1 GEF         0.0346 
     43 H12         3.1505    1.9765    1.3452 H         1 GEF         0.0403 
     44 H13         2.8098    3.0963    2.7078 H         1 GEF         0.0403 
     45 H14         5.1853    1.1711    2.4931 H         1 GEF         0.0539 
     46 H15         5.2407    2.9554    2.2943 H         1 GEF         0.0539 
     47 H16         4.6849    0.2525    4.6147 H         1 GEF         0.0539 
     48 H17         4.3716    1.3547    5.9980 H         1 GEF         0.0539 
     49 H18         2.2930    2.1361    4.9306 H         1 GEF         0.0403 
     50 H19         2.2761    0.3492    5.1127 H         1 GEF         0.0403 
     51 H20         4.1683   -7.9564    3.8230 H         1 GEF         0.0570 
     52 H22         3.1902   -5.9260   -2.2750 H         1 GEF         0.1698 
     53 H23         2.8153   -7.7126   -3.9399 H         1 GEF         0.1582 
     54 H24         1.4575   -8.4090    0.7834 H         1 GEF         0.1509 
     55 H55         2.9757    0.0837    2.8238 H         1 GEF         0.0000 
@<TRIPOS>BOND
     1    1    2 1    
     2    1   32 1    
     3    1   33 1    
     4    1   34 1    
     5    2    3 1    
     6    3    8 ar   
     7    3    4 ar   
     8    4   35 1    
     9    4    5 ar   
    10    5    6 ar   
    11    5   22 ar   
    12    6   19 ar   
    13    6    7 ar   
    14    7   36 1    
    15    7    8 ar   
    16    8    9 1    
    17    9   10 1    
    18   10   11 1    
    19   10   37 1    
    20   10   38 1    
    21   11   12 1    
    22   11   39 1    
    23   11   40 1    
    24   12   13 1    
    25   12   41 1    
    26   12   42 1    
    27   13   18 1    
    28   13   14 1    
    29   13   55 1    
    30   14   15 1    
    31   14   43 1    
    32   14   44 1    
    33   15   16 1    
    34   15   45 1    
    35   15   46 1    
    36   16   17 1    
    37   17   18 1    
    38   17   47 1    
    39   17   48 1    
    40   18   49 1    
    41   18   50 1    
    42   19   23 2    
    43   19   20 ar   
    44   20   21 ar   
    45   21   22 ar   
    46   21   51 1    
    47   23   24 1    
    48   24   29 ar   
    49   24   25 ar   
    50   25   26 ar   
    51   25   52 1    
    52   26   27 ar   
    53   26   53 1    
    54   27   28 ar   
    55   27   31 1    
    56   28   29 ar   
    57   28   30 1    
    58   29   54 1    
@<TRIPOS>SUBSTRUCTURE
     1 GEF         1 GROUP             0       ****    0 ROOT    
@<TRIPOS>MOLECULE
~{N}-(3-chloro-4-fluoro-phenyl)-7-methoxy-6-(3-morpholinopropoxy)quinazolin-4-amine
56   59    1
SMALL
USER_CHARGES


@<TRIPOS>ATOM
      1 C1         -0.0976   -2.1021    5.6386 C.3       1 GEF         0.1189 
      2 O1          1.1923   -1.9778    5.0511 O.3       1 GEF        -0.3507 
      3 C2          1.5760   -2.9690    4.1986 C.ar      1 GEF         0.0948 
      4 C3          2.2524   -4.0833    4.7037 C.ar      1 GEF        -0.1819 
      5 C4          2.6669   -5.1223    3.8740 C.ar      1 GEF         0.4344 
      6 C5          2.3820   -5.0193    2.5026 C.ar      1 GEF        -0.2848 
      7 C6          1.7010   -3.9028    1.9872 C.ar      1 GEF        -0.1134 
      8 C7          1.2992   -2.8786    2.8391 C.ar      1 GEF         0.0884 
      9 O2          0.6360   -1.7934    2.3301 O.3       1 GEF        -0.3429 
     10 C8          1.3215   -1.0268    1.3488 C.3       1 GEF         0.1307 
     11 C9          0.8567    0.4212    1.4449 C.3       1 GEF        -0.0914 
     12 C10         1.1322    1.0405    2.8088 C.3       1 GEF         0.1794 
     13 N1          2.5549    1.0487    3.1428 N.4       1 GEF        -0.7375 
     14 C11         3.2520    2.1282    2.4299 C.3       1 GEF         0.1366 
     15 C12         4.7316    2.1239    2.8034 C.3       1 GEF         0.1273 
     16 O3          4.8886    2.2762    4.2146 O.3       1 GEF        -0.4161 
     17 C13         4.2412    1.2132    4.9150 C.3       1 GEF         0.1273 
     18 C14         2.7499    1.1945    4.5921 C.3       1 GEF         0.1366 
     19 C15         2.8114   -6.0767    1.7056 C.ar      1 GEF         0.6923 
     20 N2          3.4650   -7.1554    2.1766 N.pl3     1 GEF        -0.7530 
     21 C16         3.6815   -7.1441    3.5016 C.ar      1 GEF         0.6683 
     22 N3          3.3178   -6.1855    4.3775 N.2       1 GEF        -0.7059 
     23 N4          2.5593   -6.0433    0.3114 N.2       1 GEF        -0.7159 
     24 C17         2.3463   -7.0561   -0.6371 C.ar      1 GEF         0.1140 
     25 C18         2.7279   -6.8595   -1.9643 C.ar      1 GEF        -0.0777 
     26 C19         2.5169   -7.8657   -2.9070 C.ar      1 GEF        -0.1507 
     27 C20         1.9243   -9.0685   -2.5226 C.ar      1 GEF         0.1281 
     28 C21         1.5427   -9.2650   -1.1953 C.ar      1 GEF        -0.0090 
     29 C22         1.7536   -8.2588   -0.2526 C.ar      1 GEF        -0.1434 
     30 Cl1         0.8089  -10.7465   -0.7152 Cl        1 GEF        -0.0640 
     31 F1          1.7270  -10.0257   -3.4404 F         1 GEF        -0.1244 
     32 H1         -0.2832   -1.2436    6.3008 H         1 GEF         0.0461 
     33 H2         -0.1464   -3.0330    6.2227 H         1 GEF         0.0461 
     34 H3         -0.8605   -2.1258    4.8465 H         1 GEF         0.0461 
     35 H4          2.4507   -4.1469    5.6818 H         1 GEF         0.1701 
     36 H5          1.5053   -3.8446    1.0083 H         1 GEF         0.1458 
     37 H6          2.4050   -1.0836    1.5303 H         1 GEF         0.0505 
     38 H7          1.0959   -1.4254    0.3487 H         1 GEF         0.0505 
     39 H8          1.3807    1.0254    0.6897 H         1 GEF         0.0614 
     40 H9         -0.2276    0.4709    1.2664 H         1 GEF         0.0614 
     41 H10         0.7764    2.0814    2.8175 H         1 GEF         0.0346 
     42 H11         0.6054    0.4665    3.5853 H         1 GEF         0.0346 
     43 H12         3.1505    1.9765    1.3452 H         1 GEF         0.0403 
     44 H13         2.8098    3.0963    2.7078 H         1 GEF         0.0403 
     45 H14         5.1853    1.1711    2.4931 H         1 GEF         0.0539 
     46 H15         5.2407    2.9554    2.2943 H         1 GEF         0.0539 
     47 H16         4.6849    0.2525    4.6147 H         1 GEF         0.0539 
     48 H17         4.3716    1.3547    5.9980 H         1 GEF         0.0539 
     49 H18         2.2930    2.1361    4.9306 H         1 GEF         0.0403 
     50 H19         2.2761    0.3492    5.1127 H         1 GEF         0.0403 
     51 H20         4.1683   -7.9564    3.8230 H         1 GEF         0.0570 
     52 H21         3.8146   -8.0034    1.5694 H         1 GEF         0.4259 
     53 H22         3.1902   -5.9260   -2.2750 H         1 GEF         0.1698 
     54 H23         2.8153   -7.7126   -3.9399 H         1 GEF         0.1582 
     55 H24         1.4575   -8.4090    0.7834 H         1 GEF         0.1509 
     56 H56         2.9757    0.0837    2.8238 H         1 GEF         0.0000 
@<TRIPOS>BOND
     1    1    2 1    
     2    1   32 1    
     3    1   33 1    
     4    1   34 1    
     5    2    3 1    
     6    3    8 ar   
     7    3    4 ar   
     8    4   35 1    
     9    4    5 ar   
    10    5    6 ar   
    11    5   22 ar   
    12    6   19 ar   
    13    6    7 ar   
    14    7   36 1    
    15    7    8 ar   
    16    8    9 1    
    17    9   10 1    
    18   10   11 1    
    19   10   37 1    
    20   10   38 1    
    21   11   12 1    
    22   11   39 1    
    23   11   40 1    
    24   12   13 1    
    25   12   41 1    
    26   12   42 1    
    27   13   18 1    
    28   13   14 1    
    29   13   56 1    
    30   14   15 1    
    31   14   43 1    
    32   14   44 1    
    33   15   16 1    
    34   15   45 1    
    35   15   46 1    
    36   16   17 1    
    37   17   18 1    
    38   17   47 1    
    39   17   48 1    
    40   18   49 1    
    41   18   50 1    
    42   19   23 2    
    43   19   20 ar   
    44   20   21 ar   
    45   20   52 1    
    46   21   22 ar   
    47   21   51 1    
    48   23   24 1    
    49   24   29 ar   
    50   24   25 ar   
    51   25   26 ar   
    52   25   53 1    
    53   26   27 ar   
    54   26   54 1    
    55   27   28 ar   
    56   27   31 1    
    57   28   29 ar   
    58   28   30 1    
    59   29   55 1    
@<TRIPOS>SUBSTRUCTURE
     1 GEF         1 GROUP             0       ****    0 ROOT    
@<TRIPOS>MOLECULE
~{N}-(3-chloro-4-fluoro-phenyl)-7-methoxy-6-(3-morpholinopropoxy)quinazolin-4-amine
56   59    1
SMALL
USER_CHARGES


@<TRIPOS>ATOM
      1 C1         -0.0976   -2.1021    5.6386 C.3       1 GEF         0.1189 
      2 O1          1.1923   -1.9778    5.0511 O.3       1 GEF        -0.3507 
      3 C2          1.5760   -2.9690    4.1986 C.ar      1 GEF         0.0948 
      4 C3          2.2524   -4.0833    4.7037 C.ar      1 GEF        -0.1819 
      5 C4          2.6669   -5.1223    3.8740 C.ar      1 GEF         0.4344 
      6 C5          2.3820   -5.0193    2.5026 C.ar      1 GEF        -0.2848 
      7 C6          1.7010   -3.9028    1.9872 C.ar      1 GEF        -0.1134 
      8 C7          1.2992   -2.8786    2.8391 C.ar      1 GEF         0.0884 
      9 O2          0.6360   -1.7934    2.3301 O.3       1 GEF        -0.3429 
     10 C8          1.3215   -1.0268    1.3488 C.3       1 GEF         0.1307 
     11 C9          0.8567    0.4212    1.4449 C.3       1 GEF        -0.0914 
     12 C10         1.1322    1.0405    2.8088 C.3       1 GEF         0.1794 
     13 N1          2.5549    1.0487    3.1428 N.4       1 GEF        -0.7375 
     14 C11         3.2520    2.1282    2.4299 C.3       1 GEF         0.1366 
     15 C12         4.7316    2.1239    2.8034 C.3       1 GEF         0.1273 
     16 O3          4.8886    2.2762    4.2146 O.3       1 GEF        -0.4161 
     17 C13         4.2412    1.2132    4.9150 C.3       1 GEF         0.1273 
     18 C14         2.7499    1.1945    4.5921 C.3       1 GEF         0.1366 
     19 C15         2.8114   -6.0767    1.7056 C.ar      1 GEF         0.6923 
     20 N2          3.4650   -7.1554    2.1766 N.pl3     1 GEF        -0.7530 
     21 C16         3.6815   -7.1441    3.5016 C.ar      1 GEF         0.6683 
     22 N3          3.3178   -6.1855    4.3775 N.2       1 GEF        -0.7059 
     23 N4          2.5593   -6.0433    0.3114 N.2       1 GEF        -0.7159 
     24 C17         2.4353   -4.9859   -0.6037 C.ar      1 GEF         0.1140 
     25 C18         1.6116   -5.1241   -1.7209 C.ar      1 GEF        -0.0777 
     26 C19         1.4877   -4.0735   -2.6301 C.ar      1 GEF        -0.1507 
     27 C20         2.1874   -2.8849   -2.4222 C.ar      1 GEF         0.1281 
     28 C21         3.0111   -2.7469   -1.3048 C.ar      1 GEF        -0.0090 
     29 C22         3.1351   -3.7974   -0.3957 C.ar      1 GEF        -0.1434 
     30 Cl1         3.8790   -1.2831   -1.0439 Cl        1 GEF        -0.0640 
     31 F1          2.0591   -1.8846   -3.3057 F         1 GEF        -0.1244 
     32 H1         -0.2832   -1.2436    6.3008 H         1 GEF         0.0461 
     33 H2         -0.1464   -3.0330    6.2227 H         1 GEF         0.0461 
     34 H3         -0.8605   -2.1258    4.8465 H         1 GEF         0.0461 
     35 H4          2.4507   -4.1469    5.6818 H         1 GEF         0.1701 
     36 H5          1.5053   -3.8446    1.0083 H         1 GEF         0.1458 
     37 H6          2.4050   -1.0836    1.5303 H         1 GEF         0.0505 
     38 H7          1.0959   -1.4254    0.3487 H         1 GEF         0.0505 
     39 H8          1.3807    1.0254    0.6897 H         1 GEF         0.0614 
     40 H9         -0.2276    0.4709    1.2664 H         1 GEF         0.0614 
     41 H10         0.7764    2.0814    2.8175 H         1 GEF         0.0346 
     42 H11         0.6054    0.4665    3.5853 H         1 GEF         0.0346 
     43 H12         3.1505    1.9765    1.3452 H         1 GEF         0.0403 
     44 H13         2.8098    3.0963    2.7078 H         1 GEF         0.0403 
     45 H14         5.1853    1.1711    2.4931 H         1 GEF         0.0539 
     46 H15         5.2407    2.9554    2.2943 H         1 GEF         0.0539 
     47 H16         4.6849    0.2525    4.6147 H         1 GEF         0.0539 
     48 H17         4.3716    1.3547    5.9980 H         1 GEF         0.0539 
     49 H18         2.2930    2.1361    4.9306 H         1 GEF         0.0403 
     50 H19         2.2761    0.3492    5.1127 H         1 GEF         0.0403 
     51 H20         4.1683   -7.9564    3.8230 H         1 GEF         0.0570 
     52 H21         3.8146   -8.0034    1.5694 H         1 GEF         0.4259 
     53 H22         1.0620   -6.0460   -1.8930 H         1 GEF         0.1698 
     54 H23         0.8455   -4.1811   -3.4992 H         1 GEF         0.1582 
     55 H24         3.7764   -3.6929    0.4769 H         1 GEF         0.1509 
     56 H56         2.9757    0.0837    2.8238 H         1 GEF         0.0000 
@<TRIPOS>BOND
     1    1    2 1    
     2    1   32 1    
     3    1   33 1    
     4    1   34 1    
     5    2    3 1    
     6    3    8 ar   
     7    3    4 ar   
     8    4   35 1    
     9    4    5 ar   
    10    5    6 ar   
    11    5   22 ar   
    12    6   19 ar   
    13    6    7 ar   
    14    7   36 1    
    15    7    8 ar   
    16    8    9 1    
    17    9   10 1    
    18   10   11 1    
    19   10   37 1    
    20   10   38 1    
    21   11   12 1    
    22   11   39 1    
    23   11   40 1    
    24   12   13 1    
    25   12   41 1    
    26   12   42 1    
    27   13   18 1    
    28   13   14 1    
    29   13   56 1    
    30   14   15 1    
    31   14   43 1    
    32   14   44 1    
    33   15   16 1    
    34   15   45 1    
    35   15   46 1    
    36   16   17 1    
    37   17   18 1    
    38   17   47 1    
    39   17   48 1    
    40   18   49 1    
    41   18   50 1    
    42   19   23 2    
    43   19   20 ar   
    44   20   21 ar   
    45   20   52 1    
    46   21   22 ar   
    47   21   51 1    
    48   23   24 1    
    49   24   29 ar   
    50   24   25 ar   
    51   25   26 ar   
    52   25   53 1    
    53   26   27 ar   
    54   26   54 1    
    55   27   28 ar   
    56   27   31 1    
    57   28   29 ar   
    58   28   30 1    
    59   29   55 1    
@<TRIPOS>SUBSTRUCTURE
     1 GEF         1 GROUP             0       ****    0 ROOT    
@<TRIPOS>MOLECULE
~{N}-(3-chloro-4-fluoro-phenyl)-7-methoxy-6-(3-morpholinopropoxy)quinazolin-4-amine
55   58    1
SMALL
USER_CHARGES


@<TRIPOS>ATOM
      1 C1         -0.0976   -2.1021    5.6386 C.3       1 GEF         0.1189 
      2 O1          1.1923   -1.9778    5.0511 O.3       1 GEF        -0.3507 
      3 C2          1.5760   -2.9690    4.1986 C.ar      1 GEF         0.0948 
      4 C3          2.2524   -4.0833    4.7037 C.ar      1 GEF        -0.1819 
      5 C4          2.6669   -5.1223    3.8740 C.ar      1 GEF         0.4344 
      6 C5          2.3820   -5.0193    2.5026 C.ar      1 GEF        -0.2848 
      7 C6          1.7010   -3.9028    1.9872 C.ar      1 GEF        -0.1134 
      8 C7          1.2992   -2.8786    2.8391 C.ar      1 GEF         0.0884 
      9 O2          0.6360   -1.7934    2.3301 O.3       1 GEF        -0.3429 
     10 C8          1.3215   -1.0268    1.3488 C.3       1 GEF         0.1307 
     11 C9          0.8567    0.4212    1.4449 C.3       1 GEF        -0.0914 
     12 C10         1.1322    1.0405    2.8088 C.3       1 GEF         0.1794 
     13 N1          2.5549    1.0487    3.1428 N.3       1 GEF        -0.7375 
     14 C11         3.2520    2.1282    2.4299 C.3       1 GEF         0.1366 
     15 C12         4.7316    2.1239    2.8034 C.3       1 GEF         0.1273 
     16 O3          4.8886    2.2762    4.2146 O.3       1 GEF        -0.4161 
     17 C13         4.2412    1.2132    4.9150 C.3       1 GEF         0.1273 
     18 C14         2.7499    1.1945    4.5921 C.3       1 GEF         0.1366 
     19 C15         2.8114   -6.0767    1.7056 C.ar      1 GEF         0.6923 
     20 N2          3.4650   -7.1554    2.1766 N.2       1 GEF        -0.7530 
     21 C16         3.6815   -7.1441    3.5016 C.ar      1 GEF         0.6683 
     22 N3          3.3178   -6.1855    4.3775 N.pl3     1 GEF        -0.7059 
     23 N4          2.5593   -6.0433    0.3114 N.2       1 GEF        -0.7159 
     24 C17         2.3463   -7.0561   -0.6371 C.ar      1 GEF         0.1140 
     25 C18         2.7279   -6.8595   -1.9643 C.ar      1 GEF        -0.0777 
     26 C19         2.5169   -7.8657   -2.9070 C.ar      1 GEF        -0.1507 
     27 C20         1.9243   -9.0685   -2.5226 C.ar      1 GEF         0.1281 
     28 C21         1.5427   -9.2650   -1.1953 C.ar      1 GEF        -0.0090 
     29 C22         1.7536   -8.2588   -0.2526 C.ar      1 GEF        -0.1434 
     30 Cl1         0.8089  -10.7465   -0.7152 Cl        1 GEF        -0.0640 
     31 F1          1.7270  -10.0257   -3.4404 F         1 GEF        -0.1244 
     32 H1         -0.2832   -1.2436    6.3008 H         1 GEF         0.0461 
     33 H2         -0.1464   -3.0330    6.2227 H         1 GEF         0.0461 
     34 H3         -0.8605   -2.1258    4.8465 H         1 GEF         0.0461 
     35 H4          2.4507   -4.1469    5.6818 H         1 GEF         0.1701 
     36 H5          1.5053   -3.8446    1.0083 H         1 GEF         0.1458 
     37 H6          2.4050   -1.0836    1.5303 H         1 GEF         0.0505 
     38 H7          1.0959   -1.4254    0.3487 H         1 GEF         0.0505 
     39 H8          1.3807    1.0254    0.6897 H         1 GEF         0.0614 
     40 H9         -0.2276    0.4709    1.2664 H         1 GEF         0.0614 
     41 H10         0.7764    2.0814    2.8175 H         1 GEF         0.0346 
     42 H11         0.6054    0.4665    3.5853 H         1 GEF         0.0346 
     43 H12         3.1505    1.9765    1.3452 H         1 GEF         0.0403 
     44 H13         2.8098    3.0963    2.7078 H         1 GEF         0.0403 
     45 H14         5.1853    1.1711    2.4931 H         1 GEF         0.0539 
     46 H15         5.2407    2.9554    2.2943 H         1 GEF         0.0539 
     47 H16         4.6849    0.2525    4.6147 H         1 GEF         0.0539 
     48 H17         4.3716    1.3547    5.9980 H         1 GEF         0.0539 
     49 H18         2.2930    2.1361    4.9306 H         1 GEF         0.0403 
     50 H19         2.2761    0.3492    5.1127 H         1 GEF         0.0403 
     51 H20         4.1608   -7.9065    3.9364 H         1 GEF         0.0570 
     52 H21         3.5286   -6.2414    5.4557 H         1 GEF         0.4259 
     53 H22         3.1902   -5.9260   -2.2750 H         1 GEF         0.1698 
     54 H23         2.8153   -7.7126   -3.9399 H         1 GEF         0.1582 
     55 H24         1.4575   -8.4090    0.7834 H         1 GEF         0.1509 
@<TRIPOS>BOND
     1    1    2 1    
     2    1   32 1    
     3    1   33 1    
     4    1   34 1    
     5    2    3 1    
     6    3    8 ar   
     7    3    4 ar   
     8    4   35 1    
     9    4    5 ar   
    10    5    6 ar   
    11    5   22 ar   
    12    6   19 ar   
    13    6    7 ar   
    14    7   36 1    
    15    7    8 ar   
    16    8    9 1    
    17    9   10 1    
    18   10   11 1    
    19   10   37 1    
    20   10   38 1    
    21   11   12 1    
    22   11   39 1    
    23   11   40 1    
    24   12   13 1    
    25   12   41 1    
    26   12   42 1    
    27   13   18 1    
    28   13   14 1    
    29   14   15 1    
    30   14   43 1    
    31   14   44 1    
    32   15   16 1    
    33   15   45 1    
    34   15   46 1    
    35   16   17 1    
    36   17   18 1    
    37   17   47 1    
    38   17   48 1    
    39   18   49 1    
    40   18   50 1    
    41   19   23 2    
    42   19   20 ar   
    43   20   21 ar   
    44   21   22 ar   
    45   21   51 1    
    46   22   52 1    
    47   23   24 1    
    48   24   29 ar   
    49   24   25 ar   
    50   25   26 ar   
    51   25   53 1    
    52   26   27 ar   
    53   26   54 1    
    54   27   28 ar   
    55   27   31 1    
    56   28   29 ar   
    57   28   30 1    
    58   29   55 1    
@<TRIPOS>SUBSTRUCTURE
     1 GEF         1 GROUP             0       ****    0 ROOT    
@<TRIPOS>MOLECULE
~{N}-(3-chloro-4-fluoro-phenyl)-7-methoxy-6-(3-morpholinopropoxy)quinazolin-4-amine
55   58    1
SMALL
USER_CHARGES


@<TRIPOS>ATOM
      1 C1         -0.0976   -2.1021    5.6386 C.3       1 GEF         0.1189 
      2 O1          1.1923   -1.9778    5.0511 O.3       1 GEF        -0.3507 
      3 C2          1.5760   -2.9690    4.1986 C.ar      1 GEF         0.0948 
      4 C3          2.2524   -4.0833    4.7037 C.ar      1 GEF        -0.1819 
      5 C4          2.6669   -5.1223    3.8740 C.ar      1 GEF         0.4344 
      6 C5          2.3820   -5.0193    2.5026 C.ar      1 GEF        -0.2848 
      7 C6          1.7010   -3.9028    1.9872 C.ar      1 GEF        -0.1134 
      8 C7          1.2992   -2.8786    2.8391 C.ar      1 GEF         0.0884 
      9 O2          0.6360   -1.7934    2.3301 O.3       1 GEF        -0.3429 
     10 C8          1.3215   -1.0268    1.3488 C.3       1 GEF         0.1307 
     11 C9          0.8567    0.4212    1.4449 C.3       1 GEF        -0.0914 
     12 C10         1.1322    1.0405    2.8088 C.3       1 GEF         0.1794 
     13 N1          2.5549    1.0487    3.1428 N.3       1 GEF        -0.7375 
     14 C11         3.2520    2.1282    2.4299 C.3       1 GEF         0.1366 
     15 C12         4.7316    2.1239    2.8034 C.3       1 GEF         0.1273 
     16 O3          4.8886    2.2762    4.2146 O.3       1 GEF        -0.4161 
     17 C13         4.2412    1.2132    4.9150 C.3       1 GEF         0.1273 
     18 C14         2.7499    1.1945    4.5921 C.3       1 GEF         0.1366 
     19 C15         2.8114   -6.0767    1.7056 C.ar      1 GEF         0.6923 
     20 N2          3.4650   -7.1554    2.1766 N.2       1 GEF        -0.7530 
     21 C16         3.6815   -7.1441    3.5016 C.ar      1 GEF         0.6683 
     22 N3          3.3178   -6.1855    4.3775 N.pl3     1 GEF        -0.7059 
     23 N4          2.5593   -6.0433    0.3114 N.2       1 GEF        -0.7159 
     24 C17         2.4353   -4.9859   -0.6037 C.ar      1 GEF         0.1140 
     25 C18         1.6116   -5.1241   -1.7209 C.ar      1 GEF        -0.0777 
     26 C19         1.4877   -4.0735   -2.6301 C.ar      1 GEF        -0.1507 
     27 C20         2.1874   -2.8849   -2.4222 C.ar      1 GEF         0.1281 
     28 C21         3.0111   -2.7469   -1.3048 C.ar      1 GEF        -0.0090 
     29 C22         3.1351   -3.7974   -0.3957 C.ar      1 GEF        -0.1434 
     30 Cl1         3.8790   -1.2831   -1.0439 Cl        1 GEF        -0.0640 
     31 F1          2.0591   -1.8846   -3.3057 F         1 GEF        -0.1244 
     32 H1         -0.2832   -1.2436    6.3008 H         1 GEF         0.0461 
     33 H2         -0.1464   -3.0330    6.2227 H         1 GEF         0.0461 
     34 H3         -0.8605   -2.1258    4.8465 H         1 GEF         0.0461 
     35 H4          2.4507   -4.1469    5.6818 H         1 GEF         0.1701 
     36 H5          1.5053   -3.8446    1.0083 H         1 GEF         0.1458 
     37 H6          2.4050   -1.0836    1.5303 H         1 GEF         0.0505 
     38 H7          1.0959   -1.4254    0.3487 H         1 GEF         0.0505 
     39 H8          1.3807    1.0254    0.6897 H         1 GEF         0.0614 
     40 H9         -0.2276    0.4709    1.2664 H         1 GEF         0.0614 
     41 H10         0.7764    2.0814    2.8175 H         1 GEF         0.0346 
     42 H11         0.6054    0.4665    3.5853 H         1 GEF         0.0346 
     43 H12         3.1505    1.9765    1.3452 H         1 GEF         0.0403 
     44 H13         2.8098    3.0963    2.7078 H         1 GEF         0.0403 
     45 H14         5.1853    1.1711    2.4931 H         1 GEF         0.0539 
     46 H15         5.2407    2.9554    2.2943 H         1 GEF         0.0539 
     47 H16         4.6849    0.2525    4.6147 H         1 GEF         0.0539 
     48 H17         4.3716    1.3547    5.9980 H         1 GEF         0.0539 
     49 H18         2.2930    2.1361    4.9306 H         1 GEF         0.0403 
     50 H19         2.2761    0.3492    5.1127 H         1 GEF         0.0403 
     51 H20         4.1608   -7.9065    3.9364 H         1 GEF         0.0570 
     52 H21         3.5286   -6.2414    5.4557 H         1 GEF         0.4259 
     53 H22         1.0620   -6.0460   -1.8930 H         1 GEF         0.1698 
     54 H23         0.8455   -4.1811   -3.4992 H         1 GEF         0.1582 
     55 H24         3.7764   -3.6929    0.4769 H         1 GEF         0.1509 
@<TRIPOS>BOND
     1    1    2 1    
     2    1   32 1    
     3    1   33 1    
     4    1   34 1    
     5    2    3 1    
     6    3    8 ar   
     7    3    4 ar   
     8    4   35 1    
     9    4    5 ar   
    10    5    6 ar   
    11    5   22 ar   
    12    6   19 ar   
    13    6    7 ar   
    14    7   36 1    
    15    7    8 ar   
    16    8    9 1    
    17    9   10 1    
    18   10   11 1    
    19   10   37 1    
    20   10   38 1    
    21   11   12 1    
    22   11   39 1    
    23   11   40 1    
    24   12   13 1    
    25   12   41 1    
    26   12   42 1    
    27   13   18 1    
    28   13   14 1    
    29   14   15 1    
    30   14   43 1    
    31   14   44 1    
    32   15   16 1    
    33   15   45 1    
    34   15   46 1    
    35   16   17 1    
    36   17   18 1    
    37   17   47 1    
    38   17   48 1    
    39   18   49 1    
    40   18   50 1    
    41   19   23 2    
    42   19   20 ar   
    43   20   21 ar   
    44   21   22 ar   
    45   21   51 1    
    46   22   52 1    
    47   23   24 1    
    48   24   29 ar   
    49   24   25 ar   
    50   25   26 ar   
    51   25   53 1    
    52   26   27 ar   
    53   26   54 1    
    54   27   28 ar   
    55   27   31 1    
    56   28   29 ar   
    57   28   30 1    
    58   29   55 1    
@<TRIPOS>SUBSTRUCTURE
     1 GEF         1 GROUP             0       ****    0 ROOT    
@<TRIPOS>MOLECULE
~{N}-(3-chloro-4-fluoro-phenyl)-7-methoxy-6-(3-morpholinopropoxy)quinazolin-4-amine
56   59    1
SMALL
USER_CHARGES


@<TRIPOS>ATOM
      1 C1         -0.0976   -2.1021    5.6386 C.3       1 GEF         0.1189 
      2 O1          1.1923   -1.9778    5.0511 O.3       1 GEF        -0.3507 
      3 C2          1.5760   -2.9690    4.1986 C.ar      1 GEF         0.0948 
      4 C3          2.2524   -4.0833    4.7037 C.ar      1 GEF        -0.1819 
      5 C4          2.6669   -5.1223    3.8740 C.ar      1 GEF         0.4344 
      6 C5          2.3820   -5.0193    2.5026 C.ar      1 GEF        -0.2848 
      7 C6          1.7010   -3.9028    1.9872 C.ar      1 GEF        -0.1134 
      8 C7          1.2992   -2.8786    2.8391 C.ar      1 GEF         0.0884 
      9 O2          0.6360   -1.7934    2.3301 O.3       1 GEF        -0.3429 
     10 C8          1.3215   -1.0268    1.3488 C.3       1 GEF         0.1307 
     11 C9          0.8567    0.4212    1.4449 C.3       1 GEF        -0.0914 
     12 C10         1.1322    1.0405    2.8088 C.3       1 GEF         0.1794 
     13 N1          2.5549    1.0487    3.1428 N.4       1 GEF        -0.7375 
     14 C11         3.2520    2.1282    2.4299 C.3       1 GEF         0.1366 
     15 C12         4.7316    2.1239    2.8034 C.3       1 GEF         0.1273 
     16 O3          4.8886    2.2762    4.2146 O.3       1 GEF        -0.4161 
     17 C13         4.2412    1.2132    4.9150 C.3       1 GEF         0.1273 
     18 C14         2.7499    1.1945    4.5921 C.3       1 GEF         0.1366 
     19 C15         2.8114   -6.0767    1.7056 C.ar      1 GEF         0.6923 
     20 N2          3.4650   -7.1554    2.1766 N.2       1 GEF        -0.7530 
     21 C16         3.6815   -7.1441    3.5016 C.ar      1 GEF         0.6683 
     22 N3          3.3178   -6.1855    4.3775 N.pl3     1 GEF        -0.7059 
     23 N4          2.5593   -6.0433    0.3114 N.2       1 GEF        -0.7159 
     24 C17         2.3463   -7.0561   -0.6371 C.ar      1 GEF         0.1140 
     25 C18         2.7279   -6.8595   -1.9643 C.ar      1 GEF        -0.0777 
     26 C19         2.5169   -7.8657   -2.9070 C.ar      1 GEF        -0.1507 
     27 C20         1.9243   -9.0685   -2.5226 C.ar      1 GEF         0.1281 
     28 C21         1.5427   -9.2650   -1.1953 C.ar      1 GEF        -0.0090 
     29 C22         1.7536   -8.2588   -0.2526 C.ar      1 GEF        -0.1434 
     30 Cl1         0.8089  -10.7465   -0.7152 Cl        1 GEF        -0.0640 
     31 F1          1.7270  -10.0257   -3.4404 F         1 GEF        -0.1244 
     32 H1         -0.2832   -1.2436    6.3008 H         1 GEF         0.0461 
     33 H2         -0.1464   -3.0330    6.2227 H         1 GEF         0.0461 
     34 H3         -0.8605   -2.1258    4.8465 H         1 GEF         0.0461 
     35 H4          2.4507   -4.1469    5.6818 H         1 GEF         0.1701 
     36 H5          1.5053   -3.8446    1.0083 H         1 GEF         0.1458 
     37 H6          2.4050   -1.0836    1.5303 H         1 GEF         0.0505 
     38 H7          1.0959   -1.4254    0.3487 H         1 GEF         0.0505 
     39 H8          1.3807    1.0254    0.6897 H         1 GEF         0.0614 
     40 H9         -0.2276    0.4709    1.2664 H         1 GEF         0.0614 
     41 H10         0.7764    2.0814    2.8175 H         1 GEF         0.0346 
     42 H11         0.6054    0.4665    3.5853 H         1 GEF         0.0346 
     43 H12         3.1505    1.9765    1.3452 H         1 GEF         0.0403 
     44 H13         2.8098    3.0963    2.7078 H         1 GEF         0.0403 
     45 H14         5.1853    1.1711    2.4931 H         1 GEF         0.0539 
     46 H15         5.2407    2.9554    2.2943 H         1 GEF         0.0539 
     47 H16         4.6849    0.2525    4.6147 H         1 GEF         0.0539 
     48 H17         4.3716    1.3547    5.9980 H         1 GEF         0.0539 
     49 H18         2.2930    2.1361    4.9306 H         1 GEF         0.0403 
     50 H19         2.2761    0.3492    5.1127 H         1 GEF         0.0403 
     51 H20         4.1608   -7.9065    3.9364 H         1 GEF         0.0570 
     52 H21         3.5286   -6.2414    5.4557 H         1 GEF         0.4259 
     53 H22         3.1902   -5.9260   -2.2750 H         1 GEF         0.1698 
     54 H23         2.8153   -7.7126   -3.9399 H         1 GEF         0.1582 
     55 H24         1.4575   -8.4090    0.7834 H         1 GEF         0.1509 
     56 H56         2.9757    0.0837    2.8238 H         1 GEF         0.0000 
@<TRIPOS>BOND
     1    1    2 1    
     2    1   32 1    
     3    1   33 1    
     4    1   34 1    
     5    2    3 1    
     6    3    8 ar   
     7    3    4 ar   
     8    4   35 1    
     9    4    5 ar   
    10    5    6 ar   
    11    5   22 ar   
    12    6   19 ar   
    13    6    7 ar   
    14    7   36 1    
    15    7    8 ar   
    16    8    9 1    
    17    9   10 1    
    18   10   11 1    
    19   10   37 1    
    20   10   38 1    
    21   11   12 1    
    22   11   39 1    
    23   11   40 1    
    24   12   13 1    
    25   12   41 1    
    26   12   42 1    
    27   13   18 1    
    28   13   14 1    
    29   13   56 1    
    30   14   15 1    
    31   14   43 1    
    32   14   44 1    
    33   15   16 1    
    34   15   45 1    
    35   15   46 1    
    36   16   17 1    
    37   17   18 1    
    38   17   47 1    
    39   17   48 1    
    40   18   49 1    
    41   18   50 1    
    42   19   23 2    
    43   19   20 ar   
    44   20   21 ar   
    45   21   22 ar   
    46   21   51 1    
    47   22   52 1    
    48   23   24 1    
    49   24   29 ar   
    50   24   25 ar   
    51   25   26 ar   
    52   25   53 1    
    53   26   27 ar   
    54   26   54 1    
    55   27   28 ar   
    56   27   31 1    
    57   28   29 ar   
    58   28   30 1    
    59   29   55 1    
@<TRIPOS>SUBSTRUCTURE
     1 GEF         1 GROUP             0       ****    0 ROOT    
@<TRIPOS>MOLECULE
~{N}-(3-chloro-4-fluoro-phenyl)-7-methoxy-6-(3-morpholinopropoxy)quinazolin-4-amine
56   59    1
SMALL
USER_CHARGES


@<TRIPOS>ATOM
      1 C1         -0.0976   -2.1021    5.6386 C.3       1 GEF         0.1189 
      2 O1          1.1923   -1.9778    5.0511 O.3       1 GEF        -0.3507 
      3 C2          1.5760   -2.9690    4.1986 C.ar      1 GEF         0.0948 
      4 C3          2.2524   -4.0833    4.7037 C.ar      1 GEF        -0.1819 
      5 C4          2.6669   -5.1223    3.8740 C.ar      1 GEF         0.4344 
      6 C5          2.3820   -5.0193    2.5026 C.ar      1 GEF        -0.2848 
      7 C6          1.7010   -3.9028    1.9872 C.ar      1 GEF        -0.1134 
      8 C7          1.2992   -2.8786    2.8391 C.ar      1 GEF         0.0884 
      9 O2          0.6360   -1.7934    2.3301 O.3       1 GEF        -0.3429 
     10 C8          1.3215   -1.0268    1.3488 C.3       1 GEF         0.1307 
     11 C9          0.8567    0.4212    1.4449 C.3       1 GEF        -0.0914 
     12 C10         1.1322    1.0405    2.8088 C.3       1 GEF         0.1794 
     13 N1          2.5549    1.0487    3.1428 N.4       1 GEF        -0.7375 
     14 C11         3.2520    2.1282    2.4299 C.3       1 GEF         0.1366 
     15 C12         4.7316    2.1239    2.8034 C.3       1 GEF         0.1273 
     16 O3          4.8886    2.2762    4.2146 O.3       1 GEF        -0.4161 
     17 C13         4.2412    1.2132    4.9150 C.3       1 GEF         0.1273 
     18 C14         2.7499    1.1945    4.5921 C.3       1 GEF         0.1366 
     19 C15         2.8114   -6.0767    1.7056 C.ar      1 GEF         0.6923 
     20 N2          3.4650   -7.1554    2.1766 N.2       1 GEF        -0.7530 
     21 C16         3.6815   -7.1441    3.5016 C.ar      1 GEF         0.6683 
     22 N3          3.3178   -6.1855    4.3775 N.pl3     1 GEF        -0.7059 
     23 N4          2.5593   -6.0433    0.3114 N.2       1 GEF        -0.7159 
     24 C17         2.4353   -4.9859   -0.6037 C.ar      1 GEF         0.1140 
     25 C18         1.6116   -5.1241   -1.7209 C.ar      1 GEF        -0.0777 
     26 C19         1.4877   -4.0735   -2.6301 C.ar      1 GEF        -0.1507 
     27 C20         2.1874   -2.8849   -2.4222 C.ar      1 GEF         0.1281 
     28 C21         3.0111   -2.7469   -1.3048 C.ar      1 GEF        -0.0090 
     29 C22         3.1351   -3.7974   -0.3957 C.ar      1 GEF        -0.1434 
     30 Cl1         3.8790   -1.2831   -1.0439 Cl        1 GEF        -0.0640 
     31 F1          2.0591   -1.8846   -3.3057 F         1 GEF        -0.1244 
     32 H1         -0.2832   -1.2436    6.3008 H         1 GEF         0.0461 
     33 H2         -0.1464   -3.0330    6.2227 H         1 GEF         0.0461 
     34 H3         -0.8605   -2.1258    4.8465 H         1 GEF         0.0461 
     35 H4          2.4507   -4.1469    5.6818 H         1 GEF         0.1701 
     36 H5          1.5053   -3.8446    1.0083 H         1 GEF         0.1458 
     37 H6          2.4050   -1.0836    1.5303 H         1 GEF         0.0505 
     38 H7          1.0959   -1.4254    0.3487 H         1 GEF         0.0505 
     39 H8          1.3807    1.0254    0.6897 H         1 GEF         0.0614 
     40 H9         -0.2276    0.4709    1.2664 H         1 GEF         0.0614 
     41 H10         0.7764    2.0814    2.8175 H         1 GEF         0.0346 
     42 H11         0.6054    0.4665    3.5853 H         1 GEF         0.0346 
     43 H12         3.1505    1.9765    1.3452 H         1 GEF         0.0403 
     44 H13         2.8098    3.0963    2.7078 H         1 GEF         0.0403 
     45 H14         5.1853    1.1711    2.4931 H         1 GEF         0.0539 
     46 H15         5.2407    2.9554    2.2943 H         1 GEF         0.0539 
     47 H16         4.6849    0.2525    4.6147 H         1 GEF         0.0539 
     48 H17         4.3716    1.3547    5.9980 H         1 GEF         0.0539 
     49 H18         2.2930    2.1361    4.9306 H         1 GEF         0.0403 
     50 H19         2.2761    0.3492    5.1127 H         1 GEF         0.0403 
     51 H20         4.1608   -7.9065    3.9364 H         1 GEF         0.0570 
     52 H21         3.5286   -6.2414    5.4557 H         1 GEF         0.4259 
     53 H22         1.0620   -6.0460   -1.8930 H         1 GEF         0.1698 
     54 H23         0.8455   -4.1811   -3.4992 H         1 GEF         0.1582 
     55 H24         3.7764   -3.6929    0.4769 H         1 GEF         0.1509 
     56 H56         2.9757    0.0837    2.8238 H         1 GEF         0.0000 
@<TRIPOS>BOND
     1    1    2 1    
     2    1   32 1    
     3    1   33 1    
     4    1   34 1    
     5    2    3 1    
     6    3    8 ar   
     7    3    4 ar   
     8    4   35 1    
     9    4    5 ar   
    10    5    6 ar   
    11    5   22 ar   
    12    6   19 ar   
    13    6    7 ar   
    14    7   36 1    
    15    7    8 ar   
    16    8    9 1    
    17    9   10 1    
    18   10   11 1    
    19   10   37 1    
    20   10   38 1    
    21   11   12 1    
    22   11   39 1    
    23   11   40 1    
    24   12   13 1    
    25   12   41 1    
    26   12   42 1    
    27   13   18 1    
    28   13   14 1    
    29   13   56 1    
    30   14   15 1    
    31   14   43 1    
    32   14   44 1    
    33   15   16 1    
    34   15   45 1    
    35   15   46 1    
    36   16   17 1    
    37   17   18 1    
    38   17   47 1    
    39   17   48 1    
    40   18   49 1    
    41   18   50 1    
    42   19   23 2    
    43   19   20 ar   
    44   20   21 ar   
    45   21   22 ar   
    46   21   51 1    
    47   22   52 1    
    48   23   24 1    
    49   24   29 ar   
    50   24   25 ar   
    51   25   26 ar   
    52   25   53 1    
    53   26   27 ar   
    54   26   54 1    
    55   27   28 ar   
    56   27   31 1    
    57   28   29 ar   
    58   28   30 1    
    59   29   55 1    
@<TRIPOS>SUBSTRUCTURE
     1 GEF         1 GROUP             0       ****    0 ROOT    
