~{N}-(3-chloro-4-fluoro-phenyl)-7-methoxy-6-(3-morpholinopropoxy)quinazolin-4-amine
                    3D
 Structure written by MMmdl.
 55 58  0  0  1  0            999 V2000
   -0.1002   -2.1051    5.6392 C   0  0  0  0  0  0
    1.1895   -1.9793    5.0516 O   0  0  0  0  0  0
    1.5743   -2.9699    4.1989 C   0  0  0  0  0  0
    2.2530   -4.0830    4.7036 C   0  0  0  0  0  0
    2.6675   -5.1220    3.8739 C   0  0  0  0  0  0
    2.3820   -5.0193    2.5026 C   0  0  0  0  0  0
    1.7000   -3.9033    1.9874 C   0  0  0  0  0  0
    1.2972   -2.8797    2.8394 C   0  0  0  0  0  0
    0.6330   -1.7950    2.3306 O   0  0  0  0  0  0
    1.3179   -1.0276    1.3495 C   0  0  0  0  0  0
    0.8517    0.4200    1.4459 C   0  0  0  0  0  0
    1.1265    1.0393    2.8099 C   0  0  0  0  0  0
    2.5492    1.0487    3.1440 N   0  0  0  0  0  0
    3.2453    2.1290    2.4314 C   0  0  0  0  0  0
    4.7249    2.1260    2.8050 C   0  0  0  0  0  0
    4.8817    2.2782    4.2162 O   0  0  0  0  0  0
    4.2352    1.2145    4.9163 C   0  0  0  0  0  0
    2.7439    1.1944    4.5933 C   0  0  0  0  0  0
    2.8117   -6.0765    1.7055 C   0  0  0  0  0  0
    3.4661   -7.1548    2.1764 N   0  0  0  0  0  0
    3.6829   -7.1434    3.5014 C   0  0  0  0  0  0
    3.3190   -6.1849    4.3773 N   0  0  0  0  0  0
    2.5593   -6.0433    0.3114 N   0  0  0  0  0  0
    2.3463   -7.0562   -0.6370 C   0  0  0  0  0  0
    2.7276   -6.8596   -1.9643 C   0  0  0  0  0  0
    2.5166   -7.8660   -2.9068 C   0  0  0  0  0  0
    1.9243   -9.0688   -2.5222 C   0  0  0  0  0  0
    1.5430   -9.2653   -1.1948 C   0  0  0  0  0  0
    1.7539   -8.2590   -0.2523 C   0  0  0  0  0  0
    0.8095  -10.7469   -0.7144 Cl  0  0  0  0  0  0
    1.7269  -10.0261   -3.4399 F   0  0  0  0  0  0
   -0.2866   -1.2469    6.3016 H   0  0  0  0  0  0
   -0.1478   -3.0361    6.2231 H   0  0  0  0  0  0
   -0.8632   -2.1296    4.8472 H   0  0  0  0  0  0
    2.4609   -4.1359    5.7713 H   0  0  0  0  0  0
    1.4750   -3.8159    0.9270 H   0  0  0  0  0  0
    2.4014   -1.0834    1.5310 H   0  0  0  0  0  0
    1.0927   -1.4262    0.3493 H   0  0  0  0  0  0
    1.3752    1.0248    0.6908 H   0  0  0  0  0  0
   -0.2326    0.4687    1.2673 H   0  0  0  0  0  0
    0.7698    2.0798    2.8187 H   0  0  0  0  0  0
    0.6002    0.4646    3.5863 H   0  0  0  0  0  0
    3.1440    1.9774    1.3466 H   0  0  0  0  0  0
    2.8022    3.0967    2.7094 H   0  0  0  0  0  0
    5.1795    1.1737    2.4945 H   0  0  0  0  0  0
    5.2333    2.9582    2.2960 H   0  0  0  0  0  0
    4.6798    0.2543    4.6159 H   0  0  0  0  0  0
    4.3653    1.3559    5.9994 H   0  0  0  0  0  0
    2.2862    2.1356    4.9319 H   0  0  0  0  0  0
    2.2709    0.3486    5.1137 H   0  0  0  0  0  0
    4.2073   -7.9970    3.9134 H   0  0  0  0  0  0
    2.5021   -5.0788   -0.2144 H   0  0  0  0  0  0
    3.1897   -5.9261   -2.2751 H   0  0  0  0  0  0
    2.8147   -7.7129   -3.9398 H   0  0  0  0  0  0
    1.4580   -8.4091    0.7838 H   0  0  0  0  0  0
  1  2  1  0  0  0
  1 32  1  0  0  0
  1 33  1  0  0  0
  1 34  1  0  0  0
  2  3  1  0  0  0
  3  8  2  0  0  0
  3  4  1  0  0  0
  4  5  2  0  0  0
  4 35  1  0  0  0
  5 22  1  0  0  0
  5  6  1  0  0  0
  6  7  2  0  0  0
  6 19  1  0  0  0
  7  8  1  0  0  0
  7 36  1  0  0  0
  8  9  1  0  0  0
  9 10  1  0  0  0
 10 11  1  0  0  0
 10 37  1  0  0  0
 10 38  1  0  0  0
 11 12  1  0  0  0
 11 39  1  0  0  0
 11 40  1  0  0  0
 12 13  1  0  0  0
 12 41  1  0  0  0
 12 42  1  0  0  0
 13 18  1  0  0  0
 13 14  1  0  0  0
 14 15  1  0  0  0
 14 43  1  0  0  0
 14 44  1  0  0  0
 15 16  1  0  0  0
 15 45  1  0  0  0
 15 46  1  0  0  0
 16 17  1  0  0  0
 17 18  1  0  0  0
 17 47  1  0  0  0
 17 48  1  0  0  0
 18 49  1  0  0  0
 18 50  1  0  0  0
 19 20  2  0  0  0
 19 23  1  0  0  0
 20 21  1  0  0  0
 21 22  2  0  0  0
 21 51  1  0  0  0
 23 24  1  0  0  0
 23 52  1  0  0  0
 24 29  2  0  0  0
 24 25  1  0  0  0
 25 26  2  0  0  0
 25 53  1  0  0  0
 26 27  1  0  0  0
 26 54  1  0  0  0
 27 28  2  0  0  0
 27 31  1  0  0  0
 28 29  1  0  0  0
 28 30  1  0  0  0
 29 55  1  0  0  0
M  END
> <s_m_source_file>
/Users/andrea/Development/mcce-charges/epik_inhibitors/output/Gefitinib/Gefitinib-input.mol2

> <i_m_source_file_index>
1

> <r_lp_tautomer_probability>
0.999978000241998

> <r_epik_Ionization_Penalty>
  0.1966

> <r_epik_Ionization_Penalty_Charging>
  0.0000

> <r_epik_Ionization_Penalty_Neutral>
  0.1966

> <r_epik_State_Penalty>
  0.1847

> <i_epik_Tot_Q>
0

$$$$
~{N}-(3-chloro-4-fluoro-phenyl)-7-methoxy-6-(3-morpholinopropoxy)quinazolin-4-amine
                    3D
 Structure written by MMmdl.
 56 59  0  0  1  0            999 V2000
   -0.1002   -2.1051    5.6392 C   0  0  0  0  0  0
    1.1895   -1.9793    5.0516 O   0  0  0  0  0  0
    1.5743   -2.9699    4.1989 C   0  0  0  0  0  0
    2.2530   -4.0830    4.7036 C   0  0  0  0  0  0
    2.6675   -5.1220    3.8739 C   0  0  0  0  0  0
    2.3820   -5.0193    2.5026 C   0  0  0  0  0  0
    1.7000   -3.9033    1.9874 C   0  0  0  0  0  0
    1.2972   -2.8797    2.8394 C   0  0  0  0  0  0
    0.6330   -1.7950    2.3306 O   0  0  0  0  0  0
    1.3179   -1.0276    1.3495 C   0  0  0  0  0  0
    0.8517    0.4200    1.4459 C   0  0  0  0  0  0
    1.1265    1.0393    2.8099 C   0  0  0  0  0  0
    2.5492    1.0487    3.1440 N   0  3  0  0  0  0
    3.2453    2.1290    2.4314 C   0  0  0  0  0  0
    4.7249    2.1260    2.8050 C   0  0  0  0  0  0
    4.8817    2.2782    4.2162 O   0  0  0  0  0  0
    4.2352    1.2145    4.9163 C   0  0  0  0  0  0
    2.7439    1.1944    4.5933 C   0  0  0  0  0  0
    2.8117   -6.0765    1.7055 C   0  0  0  0  0  0
    3.4661   -7.1548    2.1764 N   0  0  0  0  0  0
    3.6829   -7.1434    3.5014 C   0  0  0  0  0  0
    3.3190   -6.1849    4.3773 N   0  0  0  0  0  0
    2.5593   -6.0433    0.3114 N   0  0  0  0  0  0
    2.3463   -7.0562   -0.6370 C   0  0  0  0  0  0
    2.7276   -6.8596   -1.9643 C   0  0  0  0  0  0
    2.5166   -7.8660   -2.9068 C   0  0  0  0  0  0
    1.9243   -9.0688   -2.5222 C   0  0  0  0  0  0
    1.5430   -9.2653   -1.1948 C   0  0  0  0  0  0
    1.7539   -8.2590   -0.2523 C   0  0  0  0  0  0
    0.8095  -10.7469   -0.7144 Cl  0  0  0  0  0  0
    1.7269  -10.0261   -3.4399 F   0  0  0  0  0  0
   -0.2866   -1.2469    6.3016 H   0  0  0  0  0  0
   -0.1478   -3.0361    6.2231 H   0  0  0  0  0  0
   -0.8632   -2.1296    4.8472 H   0  0  0  0  0  0
    2.4609   -4.1359    5.7713 H   0  0  0  0  0  0
    1.4750   -3.8159    0.9270 H   0  0  0  0  0  0
    2.4014   -1.0834    1.5310 H   0  0  0  0  0  0
    1.0927   -1.4262    0.3493 H   0  0  0  0  0  0
    1.3752    1.0248    0.6908 H   0  0  0  0  0  0
   -0.2326    0.4687    1.2673 H   0  0  0  0  0  0
    0.7698    2.0798    2.8187 H   0  0  0  0  0  0
    0.6002    0.4646    3.5863 H   0  0  0  0  0  0
    3.1440    1.9774    1.3466 H   0  0  0  0  0  0
    2.8022    3.0967    2.7094 H   0  0  0  0  0  0
    5.1795    1.1737    2.4945 H   0  0  0  0  0  0
    5.2333    2.9582    2.2960 H   0  0  0  0  0  0
    4.6798    0.2543    4.6159 H   0  0  0  0  0  0
    4.3653    1.3559    5.9994 H   0  0  0  0  0  0
    2.2862    2.1356    4.9319 H   0  0  0  0  0  0
    2.2709    0.3486    5.1137 H   0  0  0  0  0  0
    4.2073   -7.9970    3.9134 H   0  0  0  0  0  0
    2.5021   -5.0788   -0.2144 H   0  0  0  0  0  0
    3.1897   -5.9261   -2.2751 H   0  0  0  0  0  0
    2.8147   -7.7129   -3.9398 H   0  0  0  0  0  0
    1.4580   -8.4091    0.7838 H   0  0  0  0  0  0
    2.9709    0.0842    2.8248 H   0  0  0  0  0  0
  1  2  1  0  0  0
  1 32  1  0  0  0
  1 33  1  0  0  0
  1 34  1  0  0  0
  2  3  1  0  0  0
  3  8  2  0  0  0
  3  4  1  0  0  0
  4  5  2  0  0  0
  4 35  1  0  0  0
  5 22  1  0  0  0
  5  6  1  0  0  0
  6  7  2  0  0  0
  6 19  1  0  0  0
  7  8  1  0  0  0
  7 36  1  0  0  0
  8  9  1  0  0  0
  9 10  1  0  0  0
 10 11  1  0  0  0
 10 37  1  0  0  0
 10 38  1  0  0  0
 11 12  1  0  0  0
 11 39  1  0  0  0
 11 40  1  0  0  0
 12 13  1  0  0  0
 12 41  1  0  0  0
 12 42  1  0  0  0
 13 18  1  0  0  0
 13 14  1  0  0  0
 13 56  1  0  0  0
 14 15  1  0  0  0
 14 43  1  0  0  0
 14 44  1  0  0  0
 15 16  1  0  0  0
 15 45  1  0  0  0
 15 46  1  0  0  0
 16 17  1  0  0  0
 17 18  1  0  0  0
 17 47  1  0  0  0
 17 48  1  0  0  0
 18 49  1  0  0  0
 18 50  1  0  0  0
 19 20  2  0  0  0
 19 23  1  0  0  0
 20 21  1  0  0  0
 21 22  2  0  0  0
 21 51  1  0  0  0
 23 24  1  0  0  0
 23 52  1  0  0  0
 24 29  2  0  0  0
 24 25  1  0  0  0
 25 26  2  0  0  0
 25 53  1  0  0  0
 26 27  1  0  0  0
 26 54  1  0  0  0
 27 28  2  0  0  0
 27 31  1  0  0  0
 28 29  1  0  0  0
 28 30  1  0  0  0
 29 55  1  0  0  0
M  CHG  1  13   1
M  END
> <s_m_source_file>
/Users/andrea/Development/mcce-charges/epik_inhibitors/output/Gefitinib/Gefitinib-input.mol2

> <i_m_source_file_index>
1

> <r_lp_tautomer_probability>
0.999978000241998

> <r_epik_Ionization_Penalty>
  0.7504

> <r_epik_Ionization_Penalty_Charging>
  0.7500

> <r_epik_Ionization_Penalty_Neutral>
  0.0003

> <r_epik_State_Penalty>
  0.7859

> <i_epik_Tot_Q>
1

$$$$
~{N}-(3-chloro-4-fluoro-phenyl)-7-methoxy-6-(3-morpholinopropoxy)quinazolin-4-amine
                    3D
 Structure written by MMmdl.
 56 59  0  0  1  0            999 V2000
   -0.0976   -2.1021    5.6386 C   0  0  0  0  0  0
    1.1923   -1.9778    5.0511 O   0  0  0  0  0  0
    1.5760   -2.9690    4.1986 C   0  0  0  0  0  0
    2.2524   -4.0833    4.7037 C   0  0  0  0  0  0
    2.6669   -5.1223    3.8740 C   0  0  0  0  0  0
    2.3820   -5.0193    2.5026 C   0  0  0  0  0  0
    1.7010   -3.9028    1.9872 C   0  0  0  0  0  0
    1.2992   -2.8786    2.8391 C   0  0  0  0  0  0
    0.6360   -1.7934    2.3301 O   0  0  0  0  0  0
    1.3215   -1.0268    1.3488 C   0  0  0  0  0  0
    0.8567    0.4212    1.4449 C   0  0  0  0  0  0
    1.1322    1.0405    2.8088 C   0  0  0  0  0  0
    2.5549    1.0487    3.1428 N   0  0  0  0  0  0
    3.2520    2.1282    2.4299 C   0  0  0  0  0  0
    4.7316    2.1239    2.8034 C   0  0  0  0  0  0
    4.8886    2.2762    4.2146 O   0  0  0  0  0  0
    4.2412    1.2132    4.9150 C   0  0  0  0  0  0
    2.7499    1.1945    4.5921 C   0  0  0  0  0  0
    2.8114   -6.0767    1.7056 C   0  0  0  0  0  0
    3.4650   -7.1554    2.1766 N   0  0  0  0  0  0
    3.6815   -7.1441    3.5016 C   0  0  0  0  0  0
    3.3178   -6.1855    4.3775 N   0  0  0  0  0  0
    2.5593   -6.0433    0.3114 N   0  3  0  0  0  0
    2.3463   -7.0561   -0.6371 C   0  0  0  0  0  0
    2.7279   -6.8595   -1.9643 C   0  0  0  0  0  0
    2.5169   -7.8657   -2.9070 C   0  0  0  0  0  0
    1.9243   -9.0685   -2.5226 C   0  0  0  0  0  0
    1.5427   -9.2650   -1.1953 C   0  0  0  0  0  0
    1.7536   -8.2588   -0.2526 C   0  0  0  0  0  0
    0.8089  -10.7465   -0.7152 Cl  0  0  0  0  0  0
    1.7270  -10.0257   -3.4404 F   0  0  0  0  0  0
   -0.2832   -1.2436    6.3008 H   0  0  0  0  0  0
   -0.1464   -3.0330    6.2227 H   0  0  0  0  0  0
   -0.8605   -2.1258    4.8465 H   0  0  0  0  0  0
    2.4507   -4.1469    5.6818 H   0  0  0  0  0  0
    1.5053   -3.8446    1.0083 H   0  0  0  0  0  0
    2.4050   -1.0836    1.5303 H   0  0  0  0  0  0
    1.0959   -1.4254    0.3487 H   0  0  0  0  0  0
    1.3807    1.0254    0.6897 H   0  0  0  0  0  0
   -0.2276    0.4709    1.2664 H   0  0  0  0  0  0
    0.7764    2.0814    2.8175 H   0  0  0  0  0  0
    0.6054    0.4665    3.5853 H   0  0  0  0  0  0
    3.1505    1.9765    1.3452 H   0  0  0  0  0  0
    2.8098    3.0963    2.7078 H   0  0  0  0  0  0
    5.1853    1.1711    2.4931 H   0  0  0  0  0  0
    5.2407    2.9554    2.2943 H   0  0  0  0  0  0
    4.6849    0.2525    4.6147 H   0  0  0  0  0  0
    4.3716    1.3547    5.9980 H   0  0  0  0  0  0
    2.2930    2.1361    4.9306 H   0  0  0  0  0  0
    2.2761    0.3492    5.1127 H   0  0  0  0  0  0
    4.1608   -7.9065    3.9364 H   0  0  0  0  0  0
    3.5286   -6.2414    5.4557 H   0  0  0  0  0  0
    3.1902   -5.9260   -2.2750 H   0  0  0  0  0  0
    2.8153   -7.7126   -3.9399 H   0  0  0  0  0  0
    1.4575   -8.4090    0.7834 H   0  0  0  0  0  0
    2.5023   -5.0787   -0.2143 H   0  0  0  0  0  0
  1  2  1  0  0  0
  1 32  1  0  0  0
  1 33  1  0  0  0
  1 34  1  0  0  0
  2  3  1  0  0  0
  3  8  1  0  0  0
  3  4  2  0  0  0
  4 35  1  0  0  0
  4  5  1  0  0  0
  5  6  2  0  0  0
  5 22  1  0  0  0
  6 19  1  0  0  0
  6  7  1  0  0  0
  7 36  1  0  0  0
  7  8  2  0  0  0
  8  9  1  0  0  0
  9 10  1  0  0  0
 10 11  1  0  0  0
 10 37  1  0  0  0
 10 38  1  0  0  0
 11 12  1  0  0  0
 11 39  1  0  0  0
 11 40  1  0  0  0
 12 13  1  0  0  0
 12 41  1  0  0  0
 12 42  1  0  0  0
 13 18  1  0  0  0
 13 14  1  0  0  0
 14 15  1  0  0  0
 14 43  1  0  0  0
 14 44  1  0  0  0
 15 16  1  0  0  0
 15 45  1  0  0  0
 15 46  1  0  0  0
 16 17  1  0  0  0
 17 18  1  0  0  0
 17 47  1  0  0  0
 17 48  1  0  0  0
 18 49  1  0  0  0
 18 50  1  0  0  0
 19 23  2  0  0  0
 19 20  1  0  0  0
 20 21  2  0  0  0
 21 22  1  0  0  0
 21 51  1  0  0  0
 22 52  1  0  0  0
 23 24  1  0  0  0
 23 56  1  0  0  0
 24 29  2  0  0  0
 24 25  1  0  0  0
 25 26  2  0  0  0
 25 53  1  0  0  0
 26 27  1  0  0  0
 26 54  1  0  0  0
 27 28  2  0  0  0
 27 31  1  0  0  0
 28 29  1  0  0  0
 28 30  1  0  0  0
 29 55  1  0  0  0
M  CHG  1  23   1
M  END
> <s_m_source_file>
/Users/andrea/Development/mcce-charges/epik_inhibitors/output/Gefitinib/Gefitinib-input.mol2

> <i_m_source_file_index>
1

> <r_epik_Ionization_Penalty>
  0.3812

> <r_epik_Ionization_Penalty_Charging>
  0.0002

> <r_epik_Ionization_Penalty_Neutral>
  0.3810

> <r_epik_State_Penalty>
  4.3893

> <i_epik_Tot_Q>
1

> <s_epik_Chemistry_Notes>
This compound has an imine and may undergo hydrolysis.

$$$$
~{N}-(3-chloro-4-fluoro-phenyl)-7-methoxy-6-(3-morpholinopropoxy)quinazolin-4-amine
                    3D
 Structure written by MMmdl.
 56 59  0  0  1  0            999 V2000
   -0.0976   -2.1021    5.6386 C   0  0  0  0  0  0
    1.1923   -1.9778    5.0511 O   0  0  0  0  0  0
    1.5760   -2.9690    4.1986 C   0  0  0  0  0  0
    2.2524   -4.0833    4.7037 C   0  0  0  0  0  0
    2.6669   -5.1223    3.8740 C   0  0  0  0  0  0
    2.3820   -5.0193    2.5026 C   0  0  0  0  0  0
    1.7010   -3.9028    1.9872 C   0  0  0  0  0  0
    1.2992   -2.8786    2.8391 C   0  0  0  0  0  0
    0.6360   -1.7934    2.3301 O   0  0  0  0  0  0
    1.3215   -1.0268    1.3488 C   0  0  0  0  0  0
    0.8567    0.4212    1.4449 C   0  0  0  0  0  0
    1.1322    1.0405    2.8088 C   0  0  0  0  0  0
    2.5549    1.0487    3.1428 N   0  0  0  0  0  0
    3.2520    2.1282    2.4299 C   0  0  0  0  0  0
    4.7316    2.1239    2.8034 C   0  0  0  0  0  0
    4.8886    2.2762    4.2146 O   0  0  0  0  0  0
    4.2412    1.2132    4.9150 C   0  0  0  0  0  0
    2.7499    1.1945    4.5921 C   0  0  0  0  0  0
    2.8114   -6.0767    1.7056 C   0  0  0  0  0  0
    3.4650   -7.1554    2.1766 N   0  0  0  0  0  0
    3.6815   -7.1441    3.5016 C   0  0  0  0  0  0
    3.3178   -6.1855    4.3775 N   0  0  0  0  0  0
    2.5593   -6.0433    0.3114 N   0  3  0  0  0  0
    2.4353   -4.9859   -0.6037 C   0  0  0  0  0  0
    1.6116   -5.1241   -1.7209 C   0  0  0  0  0  0
    1.4877   -4.0735   -2.6301 C   0  0  0  0  0  0
    2.1874   -2.8849   -2.4222 C   0  0  0  0  0  0
    3.0111   -2.7469   -1.3048 C   0  0  0  0  0  0
    3.1351   -3.7974   -0.3957 C   0  0  0  0  0  0
    3.8790   -1.2831   -1.0439 Cl  0  0  0  0  0  0
    2.0591   -1.8846   -3.3057 F   0  0  0  0  0  0
   -0.2832   -1.2436    6.3008 H   0  0  0  0  0  0
   -0.1464   -3.0330    6.2227 H   0  0  0  0  0  0
   -0.8605   -2.1258    4.8465 H   0  0  0  0  0  0
    2.4507   -4.1469    5.6818 H   0  0  0  0  0  0
    1.5053   -3.8446    1.0083 H   0  0  0  0  0  0
    2.4050   -1.0836    1.5303 H   0  0  0  0  0  0
    1.0959   -1.4254    0.3487 H   0  0  0  0  0  0
    1.3807    1.0254    0.6897 H   0  0  0  0  0  0
   -0.2276    0.4709    1.2664 H   0  0  0  0  0  0
    0.7764    2.0814    2.8175 H   0  0  0  0  0  0
    0.6054    0.4665    3.5853 H   0  0  0  0  0  0
    3.1505    1.9765    1.3452 H   0  0  0  0  0  0
    2.8098    3.0963    2.7078 H   0  0  0  0  0  0
    5.1853    1.1711    2.4931 H   0  0  0  0  0  0
    5.2407    2.9554    2.2943 H   0  0  0  0  0  0
    4.6849    0.2525    4.6147 H   0  0  0  0  0  0
    4.3716    1.3547    5.9980 H   0  0  0  0  0  0
    2.2930    2.1361    4.9306 H   0  0  0  0  0  0
    2.2761    0.3492    5.1127 H   0  0  0  0  0  0
    4.1608   -7.9065    3.9364 H   0  0  0  0  0  0
    3.5286   -6.2414    5.4557 H   0  0  0  0  0  0
    1.0620   -6.0460   -1.8930 H   0  0  0  0  0  0
    0.8455   -4.1811   -3.4992 H   0  0  0  0  0  0
    3.7764   -3.6929    0.4769 H   0  0  0  0  0  0
    2.4205   -6.9820   -0.2450 H   0  0  0  0  0  0
  1  2  1  0  0  0
  1 32  1  0  0  0
  1 33  1  0  0  0
  1 34  1  0  0  0
  2  3  1  0  0  0
  3  8  1  0  0  0
  3  4  2  0  0  0
  4 35  1  0  0  0
  4  5  1  0  0  0
  5  6  2  0  0  0
  5 22  1  0  0  0
  6 19  1  0  0  0
  6  7  1  0  0  0
  7 36  1  0  0  0
  7  8  2  0  0  0
  8  9  1  0  0  0
  9 10  1  0  0  0
 10 11  1  0  0  0
 10 37  1  0  0  0
 10 38  1  0  0  0
 11 12  1  0  0  0
 11 39  1  0  0  0
 11 40  1  0  0  0
 12 13  1  0  0  0
 12 41  1  0  0  0
 12 42  1  0  0  0
 13 18  1  0  0  0
 13 14  1  0  0  0
 14 15  1  0  0  0
 14 43  1  0  0  0
 14 44  1  0  0  0
 15 16  1  0  0  0
 15 45  1  0  0  0
 15 46  1  0  0  0
 16 17  1  0  0  0
 17 18  1  0  0  0
 17 47  1  0  0  0
 17 48  1  0  0  0
 18 49  1  0  0  0
 18 50  1  0  0  0
 19 23  2  0  0  0
 19 20  1  0  0  0
 20 21  2  0  0  0
 21 22  1  0  0  0
 21 51  1  0  0  0
 22 52  1  0  0  0
 23 24  1  0  0  0
 23 56  1  0  0  0
 24 29  2  0  0  0
 24 25  1  0  0  0
 25 26  2  0  0  0
 25 53  1  0  0  0
 26 27  1  0  0  0
 26 54  1  0  0  0
 27 28  2  0  0  0
 27 31  1  0  0  0
 28 29  1  0  0  0
 28 30  1  0  0  0
 29 55  1  0  0  0
M  CHG  1  23   1
M  END
> <s_m_source_file>
/Users/andrea/Development/mcce-charges/epik_inhibitors/output/Gefitinib/Gefitinib-input.mol2

> <i_m_source_file_index>
1

> <r_epik_Ionization_Penalty>
  0.3812

> <r_epik_Ionization_Penalty_Charging>
  0.0002

> <r_epik_Ionization_Penalty_Neutral>
  0.3810

> <r_epik_State_Penalty>
  4.3893

> <i_epik_Tot_Q>
1

> <s_epik_Chemistry_Notes>
This compound has an imine and may undergo hydrolysis.

$$$$
~{N}-(3-chloro-4-fluoro-phenyl)-7-methoxy-6-(3-morpholinopropoxy)quinazolin-4-amine
                    3D
 Structure written by MMmdl.
 56 59  0  0  1  0            999 V2000
   -0.1002   -2.1051    5.6392 C   0  0  0  0  0  0
    1.1895   -1.9793    5.0516 O   0  0  0  0  0  0
    1.5743   -2.9699    4.1989 C   0  0  0  0  0  0
    2.2530   -4.0830    4.7036 C   0  0  0  0  0  0
    2.6675   -5.1220    3.8739 C   0  0  0  0  0  0
    2.3820   -5.0193    2.5026 C   0  0  0  0  0  0
    1.7000   -3.9033    1.9874 C   0  0  0  0  0  0
    1.2972   -2.8797    2.8394 C   0  0  0  0  0  0
    0.6330   -1.7950    2.3306 O   0  0  0  0  0  0
    1.3179   -1.0276    1.3495 C   0  0  0  0  0  0
    0.8517    0.4200    1.4459 C   0  0  0  0  0  0
    1.1265    1.0393    2.8099 C   0  0  0  0  0  0
    2.5492    1.0487    3.1440 N   0  0  0  0  0  0
    3.2453    2.1290    2.4314 C   0  0  0  0  0  0
    4.7249    2.1260    2.8050 C   0  0  0  0  0  0
    4.8817    2.2782    4.2162 O   0  0  0  0  0  0
    4.2352    1.2145    4.9163 C   0  0  0  0  0  0
    2.7439    1.1944    4.5933 C   0  0  0  0  0  0
    2.8117   -6.0765    1.7055 C   0  0  0  0  0  0
    3.4661   -7.1548    2.1764 N   0  0  0  0  0  0
    3.6829   -7.1434    3.5014 C   0  0  0  0  0  0
    3.3190   -6.1849    4.3773 N   0  3  0  0  0  0
    2.5593   -6.0433    0.3114 N   0  0  0  0  0  0
    2.3463   -7.0562   -0.6370 C   0  0  0  0  0  0
    2.7276   -6.8596   -1.9643 C   0  0  0  0  0  0
    2.5166   -7.8660   -2.9068 C   0  0  0  0  0  0
    1.9243   -9.0688   -2.5222 C   0  0  0  0  0  0
    1.5430   -9.2653   -1.1948 C   0  0  0  0  0  0
    1.7539   -8.2590   -0.2523 C   0  0  0  0  0  0
    0.8095  -10.7469   -0.7144 Cl  0  0  0  0  0  0
    1.7269  -10.0261   -3.4399 F   0  0  0  0  0  0
   -0.2866   -1.2469    6.3016 H   0  0  0  0  0  0
   -0.1478   -3.0361    6.2231 H   0  0  0  0  0  0
   -0.8632   -2.1296    4.8472 H   0  0  0  0  0  0
    2.4609   -4.1359    5.7713 H   0  0  0  0  0  0
    1.4750   -3.8159    0.9270 H   0  0  0  0  0  0
    2.4014   -1.0834    1.5310 H   0  0  0  0  0  0
    1.0927   -1.4262    0.3493 H   0  0  0  0  0  0
    1.3752    1.0248    0.6908 H   0  0  0  0  0  0
   -0.2326    0.4687    1.2673 H   0  0  0  0  0  0
    0.7698    2.0798    2.8187 H   0  0  0  0  0  0
    0.6002    0.4646    3.5863 H   0  0  0  0  0  0
    3.1440    1.9774    1.3466 H   0  0  0  0  0  0
    2.8022    3.0967    2.7094 H   0  0  0  0  0  0
    5.1795    1.1737    2.4945 H   0  0  0  0  0  0
    5.2333    2.9582    2.2960 H   0  0  0  0  0  0
    4.6798    0.2543    4.6159 H   0  0  0  0  0  0
    4.3653    1.3559    5.9994 H   0  0  0  0  0  0
    2.2862    2.1356    4.9319 H   0  0  0  0  0  0
    2.2709    0.3486    5.1137 H   0  0  0  0  0  0
    4.2073   -7.9970    3.9134 H   0  0  0  0  0  0
    2.5021   -5.0788   -0.2144 H   0  0  0  0  0  0
    3.1897   -5.9261   -2.2751 H   0  0  0  0  0  0
    2.8147   -7.7129   -3.9398 H   0  0  0  0  0  0
    1.4580   -8.4091    0.7838 H   0  0  0  0  0  0
    3.5300   -6.2406    5.4554 H   0  0  0  0  0  0
  1  2  1  0  0  0
  1 32  1  0  0  0
  1 33  1  0  0  0
  1 34  1  0  0  0
  2  3  1  0  0  0
  3  8  2  0  0  0
  3  4  1  0  0  0
  4  5  2  0  0  0
  4 35  1  0  0  0
  5 22  1  0  0  0
  5  6  1  0  0  0
  6  7  2  0  0  0
  6 19  1  0  0  0
  7  8  1  0  0  0
  7 36  1  0  0  0
  8  9  1  0  0  0
  9 10  1  0  0  0
 10 11  1  0  0  0
 10 37  1  0  0  0
 10 38  1  0  0  0
 11 12  1  0  0  0
 11 39  1  0  0  0
 11 40  1  0  0  0
 12 13  1  0  0  0
 12 41  1  0  0  0
 12 42  1  0  0  0
 13 18  1  0  0  0
 13 14  1  0  0  0
 14 15  1  0  0  0
 14 43  1  0  0  0
 14 44  1  0  0  0
 15 16  1  0  0  0
 15 45  1  0  0  0
 15 46  1  0  0  0
 16 17  1  0  0  0
 17 18  1  0  0  0
 17 47  1  0  0  0
 17 48  1  0  0  0
 18 49  1  0  0  0
 18 50  1  0  0  0
 19 20  2  0  0  0
 19 23  1  0  0  0
 20 21  1  0  0  0
 21 22  2  0  0  0
 21 51  1  0  0  0
 22 56  1  0  0  0
 23 24  1  0  0  0
 23 52  1  0  0  0
 24 29  2  0  0  0
 24 25  1  0  0  0
 25 26  2  0  0  0
 25 53  1  0  0  0
 26 27  1  0  0  0
 26 54  1  0  0  0
 27 28  2  0  0  0
 27 31  1  0  0  0
 28 29  1  0  0  0
 28 30  1  0  0  0
 29 55  1  0  0  0
M  CHG  1  22   1
M  END
> <s_m_source_file>
/Users/andrea/Development/mcce-charges/epik_inhibitors/output/Gefitinib/Gefitinib-input.mol2

> <i_m_source_file_index>
1

> <r_epik_Ionization_Penalty>
  4.6461

> <r_epik_Ionization_Penalty_Charging>
  4.4495

> <r_epik_Ionization_Penalty_Neutral>
  0.1965

> <r_epik_State_Penalty>
  4.5693

> <i_epik_Tot_Q>
1

$$$$
~{N}-(3-chloro-4-fluoro-phenyl)-7-methoxy-6-(3-morpholinopropoxy)quinazolin-4-amine
                    3D
 Structure written by MMmdl.
 57 60  0  0  1  0            999 V2000
   -0.0976   -2.1021    5.6386 C   0  0  0  0  0  0
    1.1923   -1.9778    5.0511 O   0  0  0  0  0  0
    1.5760   -2.9690    4.1986 C   0  0  0  0  0  0
    2.2524   -4.0833    4.7037 C   0  0  0  0  0  0
    2.6669   -5.1223    3.8740 C   0  0  0  0  0  0
    2.3820   -5.0193    2.5026 C   0  0  0  0  0  0
    1.7010   -3.9028    1.9872 C   0  0  0  0  0  0
    1.2992   -2.8786    2.8391 C   0  0  0  0  0  0
    0.6360   -1.7934    2.3301 O   0  0  0  0  0  0
    1.3215   -1.0268    1.3488 C   0  0  0  0  0  0
    0.8567    0.4212    1.4449 C   0  0  0  0  0  0
    1.1322    1.0405    2.8088 C   0  0  0  0  0  0
    2.5549    1.0487    3.1428 N   0  3  0  0  0  0
    3.2520    2.1282    2.4299 C   0  0  0  0  0  0
    4.7316    2.1239    2.8034 C   0  0  0  0  0  0
    4.8886    2.2762    4.2146 O   0  0  0  0  0  0
    4.2412    1.2132    4.9150 C   0  0  0  0  0  0
    2.7499    1.1945    4.5921 C   0  0  0  0  0  0
    2.8114   -6.0767    1.7056 C   0  0  0  0  0  0
    3.4650   -7.1554    2.1766 N   0  0  0  0  0  0
    3.6815   -7.1441    3.5016 C   0  0  0  0  0  0
    3.3178   -6.1855    4.3775 N   0  0  0  0  0  0
    2.5593   -6.0433    0.3114 N   0  3  0  0  0  0
    2.3463   -7.0561   -0.6371 C   0  0  0  0  0  0
    2.7279   -6.8595   -1.9643 C   0  0  0  0  0  0
    2.5169   -7.8657   -2.9070 C   0  0  0  0  0  0
    1.9243   -9.0685   -2.5226 C   0  0  0  0  0  0
    1.5427   -9.2650   -1.1953 C   0  0  0  0  0  0
    1.7536   -8.2588   -0.2526 C   0  0  0  0  0  0
    0.8089  -10.7465   -0.7152 Cl  0  0  0  0  0  0
    1.7270  -10.0257   -3.4404 F   0  0  0  0  0  0
   -0.2832   -1.2436    6.3008 H   0  0  0  0  0  0
   -0.1464   -3.0330    6.2227 H   0  0  0  0  0  0
   -0.8605   -2.1258    4.8465 H   0  0  0  0  0  0
    2.4507   -4.1469    5.6818 H   0  0  0  0  0  0
    1.5053   -3.8446    1.0083 H   0  0  0  0  0  0
    2.4050   -1.0836    1.5303 H   0  0  0  0  0  0
    1.0959   -1.4254    0.3487 H   0  0  0  0  0  0
    1.3807    1.0254    0.6897 H   0  0  0  0  0  0
   -0.2276    0.4709    1.2664 H   0  0  0  0  0  0
    0.7764    2.0814    2.8175 H   0  0  0  0  0  0
    0.6054    0.4665    3.5853 H   0  0  0  0  0  0
    3.1505    1.9765    1.3452 H   0  0  0  0  0  0
    2.8098    3.0963    2.7078 H   0  0  0  0  0  0
    5.1853    1.1711    2.4931 H   0  0  0  0  0  0
    5.2407    2.9554    2.2943 H   0  0  0  0  0  0
    4.6849    0.2525    4.6147 H   0  0  0  0  0  0
    4.3716    1.3547    5.9980 H   0  0  0  0  0  0
    2.2930    2.1361    4.9306 H   0  0  0  0  0  0
    2.2761    0.3492    5.1127 H   0  0  0  0  0  0
    4.1608   -7.9065    3.9364 H   0  0  0  0  0  0
    3.5286   -6.2414    5.4557 H   0  0  0  0  0  0
    3.1902   -5.9260   -2.2750 H   0  0  0  0  0  0
    2.8153   -7.7126   -3.9399 H   0  0  0  0  0  0
    1.4575   -8.4090    0.7834 H   0  0  0  0  0  0
    2.5023   -5.0787   -0.2143 H   0  0  0  0  0  0
    2.9757    0.0837    2.8238 H   0  0  0  0  0  0
  1  2  1  0  0  0
  1 32  1  0  0  0
  1 33  1  0  0  0
  1 34  1  0  0  0
  2  3  1  0  0  0
  3  8  1  0  0  0
  3  4  2  0  0  0
  4 35  1  0  0  0
  4  5  1  0  0  0
  5  6  2  0  0  0
  5 22  1  0  0  0
  6 19  1  0  0  0
  6  7  1  0  0  0
  7 36  1  0  0  0
  7  8  2  0  0  0
  8  9  1  0  0  0
  9 10  1  0  0  0
 10 11  1  0  0  0
 10 37  1  0  0  0
 10 38  1  0  0  0
 11 12  1  0  0  0
 11 39  1  0  0  0
 11 40  1  0  0  0
 12 13  1  0  0  0
 12 41  1  0  0  0
 12 42  1  0  0  0
 13 18  1  0  0  0
 13 14  1  0  0  0
 13 57  1  0  0  0
 14 15  1  0  0  0
 14 43  1  0  0  0
 14 44  1  0  0  0
 15 16  1  0  0  0
 15 45  1  0  0  0
 15 46  1  0  0  0
 16 17  1  0  0  0
 17 18  1  0  0  0
 17 47  1  0  0  0
 17 48  1  0  0  0
 18 49  1  0  0  0
 18 50  1  0  0  0
 19 23  2  0  0  0
 19 20  1  0  0  0
 20 21  2  0  0  0
 21 22  1  0  0  0
 21 51  1  0  0  0
 22 52  1  0  0  0
 23 24  1  0  0  0
 23 56  1  0  0  0
 24 29  2  0  0  0
 24 25  1  0  0  0
 25 26  2  0  0  0
 25 53  1  0  0  0
 26 27  1  0  0  0
 26 54  1  0  0  0
 27 28  2  0  0  0
 27 31  1  0  0  0
 28 29  1  0  0  0
 28 30  1  0  0  0
 29 55  1  0  0  0
M  CHG  2  13   1  23   1
M  END
> <s_m_source_file>
/Users/andrea/Development/mcce-charges/epik_inhibitors/output/Gefitinib/Gefitinib-input.mol2

> <i_m_source_file_index>
1

> <r_epik_Ionization_Penalty>
  0.9455

> <r_epik_Ionization_Penalty_Charging>
  0.7502

> <r_epik_Ionization_Penalty_Neutral>
  0.1953

> <r_epik_State_Penalty>
  4.9887

> <i_epik_Tot_Q>
2

> <s_epik_Chemistry_Notes>
This compound has an imine and may undergo hydrolysis.

$$$$
~{N}-(3-chloro-4-fluoro-phenyl)-7-methoxy-6-(3-morpholinopropoxy)quinazolin-4-amine
                    3D
 Structure written by MMmdl.
 57 60  0  0  1  0            999 V2000
   -0.0976   -2.1021    5.6386 C   0  0  0  0  0  0
    1.1923   -1.9778    5.0511 O   0  0  0  0  0  0
    1.5760   -2.9690    4.1986 C   0  0  0  0  0  0
    2.2524   -4.0833    4.7037 C   0  0  0  0  0  0
    2.6669   -5.1223    3.8740 C   0  0  0  0  0  0
    2.3820   -5.0193    2.5026 C   0  0  0  0  0  0
    1.7010   -3.9028    1.9872 C   0  0  0  0  0  0
    1.2992   -2.8786    2.8391 C   0  0  0  0  0  0
    0.6360   -1.7934    2.3301 O   0  0  0  0  0  0
    1.3215   -1.0268    1.3488 C   0  0  0  0  0  0
    0.8567    0.4212    1.4449 C   0  0  0  0  0  0
    1.1322    1.0405    2.8088 C   0  0  0  0  0  0
    2.5549    1.0487    3.1428 N   0  3  0  0  0  0
    3.2520    2.1282    2.4299 C   0  0  0  0  0  0
    4.7316    2.1239    2.8034 C   0  0  0  0  0  0
    4.8886    2.2762    4.2146 O   0  0  0  0  0  0
    4.2412    1.2132    4.9150 C   0  0  0  0  0  0
    2.7499    1.1945    4.5921 C   0  0  0  0  0  0
    2.8114   -6.0767    1.7056 C   0  0  0  0  0  0
    3.4650   -7.1554    2.1766 N   0  0  0  0  0  0
    3.6815   -7.1441    3.5016 C   0  0  0  0  0  0
    3.3178   -6.1855    4.3775 N   0  0  0  0  0  0
    2.5593   -6.0433    0.3114 N   0  3  0  0  0  0
    2.4353   -4.9859   -0.6037 C   0  0  0  0  0  0
    1.6116   -5.1241   -1.7209 C   0  0  0  0  0  0
    1.4877   -4.0735   -2.6301 C   0  0  0  0  0  0
    2.1874   -2.8849   -2.4222 C   0  0  0  0  0  0
    3.0111   -2.7469   -1.3048 C   0  0  0  0  0  0
    3.1351   -3.7974   -0.3957 C   0  0  0  0  0  0
    3.8790   -1.2831   -1.0439 Cl  0  0  0  0  0  0
    2.0591   -1.8846   -3.3057 F   0  0  0  0  0  0
   -0.2832   -1.2436    6.3008 H   0  0  0  0  0  0
   -0.1464   -3.0330    6.2227 H   0  0  0  0  0  0
   -0.8605   -2.1258    4.8465 H   0  0  0  0  0  0
    2.4507   -4.1469    5.6818 H   0  0  0  0  0  0
    1.5053   -3.8446    1.0083 H   0  0  0  0  0  0
    2.4050   -1.0836    1.5303 H   0  0  0  0  0  0
    1.0959   -1.4254    0.3487 H   0  0  0  0  0  0
    1.3807    1.0254    0.6897 H   0  0  0  0  0  0
   -0.2276    0.4709    1.2664 H   0  0  0  0  0  0
    0.7764    2.0814    2.8175 H   0  0  0  0  0  0
    0.6054    0.4665    3.5853 H   0  0  0  0  0  0
    3.1505    1.9765    1.3452 H   0  0  0  0  0  0
    2.8098    3.0963    2.7078 H   0  0  0  0  0  0
    5.1853    1.1711    2.4931 H   0  0  0  0  0  0
    5.2407    2.9554    2.2943 H   0  0  0  0  0  0
    4.6849    0.2525    4.6147 H   0  0  0  0  0  0
    4.3716    1.3547    5.9980 H   0  0  0  0  0  0
    2.2930    2.1361    4.9306 H   0  0  0  0  0  0
    2.2761    0.3492    5.1127 H   0  0  0  0  0  0
    4.1608   -7.9065    3.9364 H   0  0  0  0  0  0
    3.5286   -6.2414    5.4557 H   0  0  0  0  0  0
    1.0620   -6.0460   -1.8930 H   0  0  0  0  0  0
    0.8455   -4.1811   -3.4992 H   0  0  0  0  0  0
    3.7764   -3.6929    0.4769 H   0  0  0  0  0  0
    2.4205   -6.9820   -0.2450 H   0  0  0  0  0  0
    2.9757    0.0837    2.8238 H   0  0  0  0  0  0
  1  2  1  0  0  0
  1 32  1  0  0  0
  1 33  1  0  0  0
  1 34  1  0  0  0
  2  3  1  0  0  0
  3  8  1  0  0  0
  3  4  2  0  0  0
  4 35  1  0  0  0
  4  5  1  0  0  0
  5  6  2  0  0  0
  5 22  1  0  0  0
  6 19  1  0  0  0
  6  7  1  0  0  0
  7 36  1  0  0  0
  7  8  2  0  0  0
  8  9  1  0  0  0
  9 10  1  0  0  0
 10 11  1  0  0  0
 10 37  1  0  0  0
 10 38  1  0  0  0
 11 12  1  0  0  0
 11 39  1  0  0  0
 11 40  1  0  0  0
 12 13  1  0  0  0
 12 41  1  0  0  0
 12 42  1  0  0  0
 13 18  1  0  0  0
 13 14  1  0  0  0
 13 57  1  0  0  0
 14 15  1  0  0  0
 14 43  1  0  0  0
 14 44  1  0  0  0
 15 16  1  0  0  0
 15 45  1  0  0  0
 15 46  1  0  0  0
 16 17  1  0  0  0
 17 18  1  0  0  0
 17 47  1  0  0  0
 17 48  1  0  0  0
 18 49  1  0  0  0
 18 50  1  0  0  0
 19 23  2  0  0  0
 19 20  1  0  0  0
 20 21  2  0  0  0
 21 22  1  0  0  0
 21 51  1  0  0  0
 22 52  1  0  0  0
 23 24  1  0  0  0
 23 56  1  0  0  0
 24 29  2  0  0  0
 24 25  1  0  0  0
 25 26  2  0  0  0
 25 53  1  0  0  0
 26 27  1  0  0  0
 26 54  1  0  0  0
 27 28  2  0  0  0
 27 31  1  0  0  0
 28 29  1  0  0  0
 28 30  1  0  0  0
 29 55  1  0  0  0
M  CHG  2  13   1  23   1
M  END
> <s_m_source_file>
/Users/andrea/Development/mcce-charges/epik_inhibitors/output/Gefitinib/Gefitinib-input.mol2

> <i_m_source_file_index>
1

> <r_epik_Ionization_Penalty>
  0.9455

> <r_epik_Ionization_Penalty_Charging>
  0.7502

> <r_epik_Ionization_Penalty_Neutral>
  0.1953

> <r_epik_State_Penalty>
  4.9887

> <i_epik_Tot_Q>
2

> <s_epik_Chemistry_Notes>
This compound has an imine and may undergo hydrolysis.

$$$$
~{N}-(3-chloro-4-fluoro-phenyl)-7-methoxy-6-(3-morpholinopropoxy)quinazolin-4-amine
                    3D
 Structure written by MMmdl.
 57 60  0  0  1  0            999 V2000
   -0.1002   -2.1051    5.6392 C   0  0  0  0  0  0
    1.1895   -1.9793    5.0516 O   0  0  0  0  0  0
    1.5743   -2.9699    4.1989 C   0  0  0  0  0  0
    2.2530   -4.0830    4.7036 C   0  0  0  0  0  0
    2.6675   -5.1220    3.8739 C   0  0  0  0  0  0
    2.3820   -5.0193    2.5026 C   0  0  0  0  0  0
    1.7000   -3.9033    1.9874 C   0  0  0  0  0  0
    1.2972   -2.8797    2.8394 C   0  0  0  0  0  0
    0.6330   -1.7950    2.3306 O   0  0  0  0  0  0
    1.3179   -1.0276    1.3495 C   0  0  0  0  0  0
    0.8517    0.4200    1.4459 C   0  0  0  0  0  0
    1.1265    1.0393    2.8099 C   0  0  0  0  0  0
    2.5492    1.0487    3.1440 N   0  3  0  0  0  0
    3.2453    2.1290    2.4314 C   0  0  0  0  0  0
    4.7249    2.1260    2.8050 C   0  0  0  0  0  0
    4.8817    2.2782    4.2162 O   0  0  0  0  0  0
    4.2352    1.2145    4.9163 C   0  0  0  0  0  0
    2.7439    1.1944    4.5933 C   0  0  0  0  0  0
    2.8117   -6.0765    1.7055 C   0  0  0  0  0  0
    3.4661   -7.1548    2.1764 N   0  0  0  0  0  0
    3.6829   -7.1434    3.5014 C   0  0  0  0  0  0
    3.3190   -6.1849    4.3773 N   0  3  0  0  0  0
    2.5593   -6.0433    0.3114 N   0  0  0  0  0  0
    2.3463   -7.0562   -0.6370 C   0  0  0  0  0  0
    2.7276   -6.8596   -1.9643 C   0  0  0  0  0  0
    2.5166   -7.8660   -2.9068 C   0  0  0  0  0  0
    1.9243   -9.0688   -2.5222 C   0  0  0  0  0  0
    1.5430   -9.2653   -1.1948 C   0  0  0  0  0  0
    1.7539   -8.2590   -0.2523 C   0  0  0  0  0  0
    0.8095  -10.7469   -0.7144 Cl  0  0  0  0  0  0
    1.7269  -10.0261   -3.4399 F   0  0  0  0  0  0
   -0.2866   -1.2469    6.3016 H   0  0  0  0  0  0
   -0.1478   -3.0361    6.2231 H   0  0  0  0  0  0
   -0.8632   -2.1296    4.8472 H   0  0  0  0  0  0
    2.4609   -4.1359    5.7713 H   0  0  0  0  0  0
    1.4750   -3.8159    0.9270 H   0  0  0  0  0  0
    2.4014   -1.0834    1.5310 H   0  0  0  0  0  0
    1.0927   -1.4262    0.3493 H   0  0  0  0  0  0
    1.3752    1.0248    0.6908 H   0  0  0  0  0  0
   -0.2326    0.4687    1.2673 H   0  0  0  0  0  0
    0.7698    2.0798    2.8187 H   0  0  0  0  0  0
    0.6002    0.4646    3.5863 H   0  0  0  0  0  0
    3.1440    1.9774    1.3466 H   0  0  0  0  0  0
    2.8022    3.0967    2.7094 H   0  0  0  0  0  0
    5.1795    1.1737    2.4945 H   0  0  0  0  0  0
    5.2333    2.9582    2.2960 H   0  0  0  0  0  0
    4.6798    0.2543    4.6159 H   0  0  0  0  0  0
    4.3653    1.3559    5.9994 H   0  0  0  0  0  0
    2.2862    2.1356    4.9319 H   0  0  0  0  0  0
    2.2709    0.3486    5.1137 H   0  0  0  0  0  0
    4.2073   -7.9970    3.9134 H   0  0  0  0  0  0
    2.5021   -5.0788   -0.2144 H   0  0  0  0  0  0
    3.1897   -5.9261   -2.2751 H   0  0  0  0  0  0
    2.8147   -7.7129   -3.9398 H   0  0  0  0  0  0
    1.4580   -8.4091    0.7838 H   0  0  0  0  0  0
    2.9709    0.0842    2.8248 H   0  0  0  0  0  0
    3.5300   -6.2406    5.4554 H   0  0  0  0  0  0
  1  2  1  0  0  0
  1 32  1  0  0  0
  1 33  1  0  0  0
  1 34  1  0  0  0
  2  3  1  0  0  0
  3  8  2  0  0  0
  3  4  1  0  0  0
  4  5  2  0  0  0
  4 35  1  0  0  0
  5 22  1  0  0  0
  5  6  1  0  0  0
  6  7  2  0  0  0
  6 19  1  0  0  0
  7  8  1  0  0  0
  7 36  1  0  0  0
  8  9  1  0  0  0
  9 10  1  0  0  0
 10 11  1  0  0  0
 10 37  1  0  0  0
 10 38  1  0  0  0
 11 12  1  0  0  0
 11 39  1  0  0  0
 11 40  1  0  0  0
 12 13  1  0  0  0
 12 41  1  0  0  0
 12 42  1  0  0  0
 13 18  1  0  0  0
 13 14  1  0  0  0
 13 56  1  0  0  0
 14 15  1  0  0  0
 14 43  1  0  0  0
 14 44  1  0  0  0
 15 16  1  0  0  0
 15 45  1  0  0  0
 15 46  1  0  0  0
 16 17  1  0  0  0
 17 18  1  0  0  0
 17 47  1  0  0  0
 17 48  1  0  0  0
 18 49  1  0  0  0
 18 50  1  0  0  0
 19 20  2  0  0  0
 19 23  1  0  0  0
 20 21  1  0  0  0
 21 22  2  0  0  0
 21 51  1  0  0  0
 22 57  1  0  0  0
 23 24  1  0  0  0
 23 52  1  0  0  0
 24 29  2  0  0  0
 24 25  1  0  0  0
 25 26  2  0  0  0
 25 53  1  0  0  0
 26 27  1  0  0  0
 26 54  1  0  0  0
 27 28  2  0  0  0
 27 31  1  0  0  0
 28 29  1  0  0  0
 28 30  1  0  0  0
 29 55  1  0  0  0
M  CHG  2  13   1  22   1
M  END
> <s_m_source_file>
/Users/andrea/Development/mcce-charges/epik_inhibitors/output/Gefitinib/Gefitinib-input.mol2

> <i_m_source_file_index>
1

> <r_epik_Ionization_Penalty>
  5.2528

> <r_epik_Ionization_Penalty_Charging>
  5.2525

> <r_epik_Ionization_Penalty_Neutral>
  0.0003

> <r_epik_State_Penalty>
  5.1773

> <i_epik_Tot_Q>
2

$$$$
~{N}-(3-chloro-4-fluoro-phenyl)-7-methoxy-6-(3-morpholinopropoxy)quinazolin-4-amine
                    3D
 Structure written by MMmdl.
 54 57  0  0  1  0            999 V2000
   -0.1002   -2.1051    5.6392 C   0  0  0  0  0  0
    1.1895   -1.9793    5.0516 O   0  0  0  0  0  0
    1.5743   -2.9699    4.1989 C   0  0  0  0  0  0
    2.2530   -4.0830    4.7036 C   0  0  0  0  0  0
    2.6675   -5.1220    3.8739 C   0  0  0  0  0  0
    2.3820   -5.0193    2.5026 C   0  0  0  0  0  0
    1.7000   -3.9033    1.9874 C   0  0  0  0  0  0
    1.2972   -2.8797    2.8394 C   0  0  0  0  0  0
    0.6330   -1.7950    2.3306 O   0  0  0  0  0  0
    1.3179   -1.0276    1.3495 C   0  0  0  0  0  0
    0.8517    0.4200    1.4459 C   0  0  0  0  0  0
    1.1265    1.0393    2.8099 C   0  0  0  0  0  0
    2.5492    1.0487    3.1440 N   0  0  0  0  0  0
    3.2453    2.1290    2.4314 C   0  0  0  0  0  0
    4.7249    2.1260    2.8050 C   0  0  0  0  0  0
    4.8817    2.2782    4.2162 O   0  0  0  0  0  0
    4.2352    1.2145    4.9163 C   0  0  0  0  0  0
    2.7439    1.1944    4.5933 C   0  0  0  0  0  0
    2.8117   -6.0765    1.7055 C   0  0  0  0  0  0
    3.4661   -7.1548    2.1764 N   0  0  0  0  0  0
    3.6829   -7.1434    3.5014 C   0  0  0  0  0  0
    3.3190   -6.1849    4.3773 N   0  0  0  0  0  0
    2.5593   -6.0433    0.3114 N   0  5  0  0  0  0
    2.3463   -7.0562   -0.6370 C   0  0  0  0  0  0
    2.7276   -6.8596   -1.9643 C   0  0  0  0  0  0
    2.5166   -7.8660   -2.9068 C   0  0  0  0  0  0
    1.9243   -9.0688   -2.5222 C   0  0  0  0  0  0
    1.5430   -9.2653   -1.1948 C   0  0  0  0  0  0
    1.7539   -8.2590   -0.2523 C   0  0  0  0  0  0
    0.8095  -10.7469   -0.7144 Cl  0  0  0  0  0  0
    1.7269  -10.0261   -3.4399 F   0  0  0  0  0  0
   -0.2866   -1.2469    6.3016 H   0  0  0  0  0  0
   -0.1478   -3.0361    6.2231 H   0  0  0  0  0  0
   -0.8632   -2.1296    4.8472 H   0  0  0  0  0  0
    2.4609   -4.1359    5.7713 H   0  0  0  0  0  0
    1.4750   -3.8159    0.9270 H   0  0  0  0  0  0
    2.4014   -1.0834    1.5310 H   0  0  0  0  0  0
    1.0927   -1.4262    0.3493 H   0  0  0  0  0  0
    1.3752    1.0248    0.6908 H   0  0  0  0  0  0
   -0.2326    0.4687    1.2673 H   0  0  0  0  0  0
    0.7698    2.0798    2.8187 H   0  0  0  0  0  0
    0.6002    0.4646    3.5863 H   0  0  0  0  0  0
    3.1440    1.9774    1.3466 H   0  0  0  0  0  0
    2.8022    3.0967    2.7094 H   0  0  0  0  0  0
    5.1795    1.1737    2.4945 H   0  0  0  0  0  0
    5.2333    2.9582    2.2960 H   0  0  0  0  0  0
    4.6798    0.2543    4.6159 H   0  0  0  0  0  0
    4.3653    1.3559    5.9994 H   0  0  0  0  0  0
    2.2862    2.1356    4.9319 H   0  0  0  0  0  0
    2.2709    0.3486    5.1137 H   0  0  0  0  0  0
    4.2073   -7.9970    3.9134 H   0  0  0  0  0  0
    3.1897   -5.9261   -2.2751 H   0  0  0  0  0  0
    2.8147   -7.7129   -3.9398 H   0  0  0  0  0  0
    1.4580   -8.4091    0.7838 H   0  0  0  0  0  0
  1  2  1  0  0  0
  1 32  1  0  0  0
  1 33  1  0  0  0
  1 34  1  0  0  0
  2  3  1  0  0  0
  3  8  2  0  0  0
  3  4  1  0  0  0
  4  5  2  0  0  0
  4 35  1  0  0  0
  5 22  1  0  0  0
  5  6  1  0  0  0
  6  7  2  0  0  0
  6 19  1  0  0  0
  7  8  1  0  0  0
  7 36  1  0  0  0
  8  9  1  0  0  0
  9 10  1  0  0  0
 10 11  1  0  0  0
 10 37  1  0  0  0
 10 38  1  0  0  0
 11 12  1  0  0  0
 11 39  1  0  0  0
 11 40  1  0  0  0
 12 13  1  0  0  0
 12 41  1  0  0  0
 12 42  1  0  0  0
 13 18  1  0  0  0
 13 14  1  0  0  0
 14 15  1  0  0  0
 14 43  1  0  0  0
 14 44  1  0  0  0
 15 16  1  0  0  0
 15 45  1  0  0  0
 15 46  1  0  0  0
 16 17  1  0  0  0
 17 18  1  0  0  0
 17 47  1  0  0  0
 17 48  1  0  0  0
 18 49  1  0  0  0
 18 50  1  0  0  0
 19 20  2  0  0  0
 19 23  1  0  0  0
 20 21  1  0  0  0
 21 22  2  0  0  0
 21 51  1  0  0  0
 23 24  1  0  0  0
 24 29  2  0  0  0
 24 25  1  0  0  0
 25 26  2  0  0  0
 25 52  1  0  0  0
 26 27  1  0  0  0
 26 53  1  0  0  0
 27 28  2  0  0  0
 27 31  1  0  0  0
 28 29  1  0  0  0
 28 30  1  0  0  0
 29 54  1  0  0  0
M  CHG  1  23  -1
M  END
> <s_m_source_file>
/Users/andrea/Development/mcce-charges/epik_inhibitors/output/Gefitinib/Gefitinib-input.mol2

> <i_m_source_file_index>
1

> <r_epik_Ionization_Penalty>
  7.7491

> <r_epik_Ionization_Penalty_Charging>
  7.5474

> <r_epik_Ionization_Penalty_Neutral>
  0.2016

> <r_epik_State_Penalty>
  5.5819

> <i_epik_Tot_Q>
-1

$$$$
~{N}-(3-chloro-4-fluoro-phenyl)-7-methoxy-6-(3-morpholinopropoxy)quinazolin-4-amine
                    3D
 Structure written by MMmdl.
 55 58  0  0  1  0            999 V2000
   -0.1002   -2.1051    5.6392 C   0  0  0  0  0  0
    1.1895   -1.9793    5.0516 O   0  0  0  0  0  0
    1.5743   -2.9699    4.1989 C   0  0  0  0  0  0
    2.2530   -4.0830    4.7036 C   0  0  0  0  0  0
    2.6675   -5.1220    3.8739 C   0  0  0  0  0  0
    2.3820   -5.0193    2.5026 C   0  0  0  0  0  0
    1.7000   -3.9033    1.9874 C   0  0  0  0  0  0
    1.2972   -2.8797    2.8394 C   0  0  0  0  0  0
    0.6330   -1.7950    2.3306 O   0  0  0  0  0  0
    1.3179   -1.0276    1.3495 C   0  0  0  0  0  0
    0.8517    0.4200    1.4459 C   0  0  0  0  0  0
    1.1265    1.0393    2.8099 C   0  0  0  0  0  0
    2.5492    1.0487    3.1440 N   0  3  0  0  0  0
    3.2453    2.1290    2.4314 C   0  0  0  0  0  0
    4.7249    2.1260    2.8050 C   0  0  0  0  0  0
    4.8817    2.2782    4.2162 O   0  0  0  0  0  0
    4.2352    1.2145    4.9163 C   0  0  0  0  0  0
    2.7439    1.1944    4.5933 C   0  0  0  0  0  0
    2.8117   -6.0765    1.7055 C   0  0  0  0  0  0
    3.4661   -7.1548    2.1764 N   0  0  0  0  0  0
    3.6829   -7.1434    3.5014 C   0  0  0  0  0  0
    3.3190   -6.1849    4.3773 N   0  0  0  0  0  0
    2.5593   -6.0433    0.3114 N   0  5  0  0  0  0
    2.3463   -7.0562   -0.6370 C   0  0  0  0  0  0
    2.7276   -6.8596   -1.9643 C   0  0  0  0  0  0
    2.5166   -7.8660   -2.9068 C   0  0  0  0  0  0
    1.9243   -9.0688   -2.5222 C   0  0  0  0  0  0
    1.5430   -9.2653   -1.1948 C   0  0  0  0  0  0
    1.7539   -8.2590   -0.2523 C   0  0  0  0  0  0
    0.8095  -10.7469   -0.7144 Cl  0  0  0  0  0  0
    1.7269  -10.0261   -3.4399 F   0  0  0  0  0  0
   -0.2866   -1.2469    6.3016 H   0  0  0  0  0  0
   -0.1478   -3.0361    6.2231 H   0  0  0  0  0  0
   -0.8632   -2.1296    4.8472 H   0  0  0  0  0  0
    2.4609   -4.1359    5.7713 H   0  0  0  0  0  0
    1.4750   -3.8159    0.9270 H   0  0  0  0  0  0
    2.4014   -1.0834    1.5310 H   0  0  0  0  0  0
    1.0927   -1.4262    0.3493 H   0  0  0  0  0  0
    1.3752    1.0248    0.6908 H   0  0  0  0  0  0
   -0.2326    0.4687    1.2673 H   0  0  0  0  0  0
    0.7698    2.0798    2.8187 H   0  0  0  0  0  0
    0.6002    0.4646    3.5863 H   0  0  0  0  0  0
    3.1440    1.9774    1.3466 H   0  0  0  0  0  0
    2.8022    3.0967    2.7094 H   0  0  0  0  0  0
    5.1795    1.1737    2.4945 H   0  0  0  0  0  0
    5.2333    2.9582    2.2960 H   0  0  0  0  0  0
    4.6798    0.2543    4.6159 H   0  0  0  0  0  0
    4.3653    1.3559    5.9994 H   0  0  0  0  0  0
    2.2862    2.1356    4.9319 H   0  0  0  0  0  0
    2.2709    0.3486    5.1137 H   0  0  0  0  0  0
    4.2073   -7.9970    3.9134 H   0  0  0  0  0  0
    3.1897   -5.9261   -2.2751 H   0  0  0  0  0  0
    2.8147   -7.7129   -3.9398 H   0  0  0  0  0  0
    1.4580   -8.4091    0.7838 H   0  0  0  0  0  0
    2.9709    0.0842    2.8248 H   0  0  0  0  0  0
  1  2  1  0  0  0
  1 32  1  0  0  0
  1 33  1  0  0  0
  1 34  1  0  0  0
  2  3  1  0  0  0
  3  8  2  0  0  0
  3  4  1  0  0  0
  4  5  2  0  0  0
  4 35  1  0  0  0
  5 22  1  0  0  0
  5  6  1  0  0  0
  6  7  2  0  0  0
  6 19  1  0  0  0
  7  8  1  0  0  0
  7 36  1  0  0  0
  8  9  1  0  0  0
  9 10  1  0  0  0
 10 11  1  0  0  0
 10 37  1  0  0  0
 10 38  1  0  0  0
 11 12  1  0  0  0
 11 39  1  0  0  0
 11 40  1  0  0  0
 12 13  1  0  0  0
 12 41  1  0  0  0
 12 42  1  0  0  0
 13 18  1  0  0  0
 13 14  1  0  0  0
 13 55  1  0  0  0
 14 15  1  0  0  0
 14 43  1  0  0  0
 14 44  1  0  0  0
 15 16  1  0  0  0
 15 45  1  0  0  0
 15 46  1  0  0  0
 16 17  1  0  0  0
 17 18  1  0  0  0
 17 47  1  0  0  0
 17 48  1  0  0  0
 18 49  1  0  0  0
 18 50  1  0  0  0
 19 20  2  0  0  0
 19 23  1  0  0  0
 20 21  1  0  0  0
 21 22  2  0  0  0
 21 51  1  0  0  0
 23 24  1  0  0  0
 24 29  2  0  0  0
 24 25  1  0  0  0
 25 26  2  0  0  0
 25 52  1  0  0  0
 26 27  1  0  0  0
 26 53  1  0  0  0
 27 28  2  0  0  0
 27 31  1  0  0  0
 28 29  1  0  0  0
 28 30  1  0  0  0
 29 54  1  0  0  0
M  CHG  2  13   1  23  -1
M  END
> <s_m_source_file>
/Users/andrea/Development/mcce-charges/epik_inhibitors/output/Gefitinib/Gefitinib-input.mol2

> <i_m_source_file_index>
1

> <r_epik_Ionization_Penalty>
  8.2727

> <r_epik_Ionization_Penalty_Charging>
  8.2678

> <r_epik_Ionization_Penalty_Neutral>
  0.0049

> <r_epik_State_Penalty>
  6.1505

> <i_epik_Tot_Q>
0

$$$$
~{N}-(3-chloro-4-fluoro-phenyl)-7-methoxy-6-(3-morpholinopropoxy)quinazolin-4-amine
                    3D
 Structure written by MMmdl.
 56 59  0  0  1  0            999 V2000
   -0.1002   -2.1051    5.6392 C   0  0  0  0  0  0
    1.1895   -1.9793    5.0516 O   0  0  0  0  0  0
    1.5743   -2.9699    4.1989 C   0  0  0  0  0  0
    2.2530   -4.0830    4.7036 C   0  0  0  0  0  0
    2.6675   -5.1220    3.8739 C   0  0  0  0  0  0
    2.3820   -5.0193    2.5026 C   0  0  0  0  0  0
    1.7000   -3.9033    1.9874 C   0  0  0  0  0  0
    1.2972   -2.8797    2.8394 C   0  0  0  0  0  0
    0.6330   -1.7950    2.3306 O   0  0  0  0  0  0
    1.3179   -1.0276    1.3495 C   0  0  0  0  0  0
    0.8517    0.4200    1.4459 C   0  0  0  0  0  0
    1.1265    1.0393    2.8099 C   0  0  0  0  0  0
    2.5492    1.0487    3.1440 N   0  0  0  0  0  0
    3.2453    2.1290    2.4314 C   0  0  0  0  0  0
    4.7249    2.1260    2.8050 C   0  0  0  0  0  0
    4.8817    2.2782    4.2162 O   0  0  0  0  0  0
    4.2352    1.2145    4.9163 C   0  0  0  0  0  0
    2.7439    1.1944    4.5933 C   0  0  0  0  0  0
    2.8117   -6.0765    1.7055 C   0  0  0  0  0  0
    3.4661   -7.1548    2.1764 N   0  3  0  0  0  0
    3.6829   -7.1434    3.5014 C   0  0  0  0  0  0
    3.3190   -6.1849    4.3773 N   0  0  0  0  0  0
    2.5593   -6.0433    0.3114 N   0  0  0  0  0  0
    2.3463   -7.0562   -0.6370 C   0  0  0  0  0  0
    2.7276   -6.8596   -1.9643 C   0  0  0  0  0  0
    2.5166   -7.8660   -2.9068 C   0  0  0  0  0  0
    1.9243   -9.0688   -2.5222 C   0  0  0  0  0  0
    1.5430   -9.2653   -1.1948 C   0  0  0  0  0  0
    1.7539   -8.2590   -0.2523 C   0  0  0  0  0  0
    0.8095  -10.7469   -0.7144 Cl  0  0  0  0  0  0
    1.7269  -10.0261   -3.4399 F   0  0  0  0  0  0
   -0.2866   -1.2469    6.3016 H   0  0  0  0  0  0
   -0.1478   -3.0361    6.2231 H   0  0  0  0  0  0
   -0.8632   -2.1296    4.8472 H   0  0  0  0  0  0
    2.4609   -4.1359    5.7713 H   0  0  0  0  0  0
    1.4750   -3.8159    0.9270 H   0  0  0  0  0  0
    2.4014   -1.0834    1.5310 H   0  0  0  0  0  0
    1.0927   -1.4262    0.3493 H   0  0  0  0  0  0
    1.3752    1.0248    0.6908 H   0  0  0  0  0  0
   -0.2326    0.4687    1.2673 H   0  0  0  0  0  0
    0.7698    2.0798    2.8187 H   0  0  0  0  0  0
    0.6002    0.4646    3.5863 H   0  0  0  0  0  0
    3.1440    1.9774    1.3466 H   0  0  0  0  0  0
    2.8022    3.0967    2.7094 H   0  0  0  0  0  0
    5.1795    1.1737    2.4945 H   0  0  0  0  0  0
    5.2333    2.9582    2.2960 H   0  0  0  0  0  0
    4.6798    0.2543    4.6159 H   0  0  0  0  0  0
    4.3653    1.3559    5.9994 H   0  0  0  0  0  0
    2.2862    2.1356    4.9319 H   0  0  0  0  0  0
    2.2709    0.3486    5.1137 H   0  0  0  0  0  0
    4.2073   -7.9970    3.9134 H   0  0  0  0  0  0
    2.5021   -5.0788   -0.2144 H   0  0  0  0  0  0
    3.1897   -5.9261   -2.2751 H   0  0  0  0  0  0
    2.8147   -7.7129   -3.9398 H   0  0  0  0  0  0
    1.4580   -8.4091    0.7838 H   0  0  0  0  0  0
    3.7765   -7.9541    1.4873 H   0  0  0  0  0  0
  1  2  1  0  0  0
  1 32  1  0  0  0
  1 33  1  0  0  0
  1 34  1  0  0  0
  2  3  1  0  0  0
  3  8  2  0  0  0
  3  4  1  0  0  0
  4  5  2  0  0  0
  4 35  1  0  0  0
  5 22  1  0  0  0
  5  6  1  0  0  0
  6  7  2  0  0  0
  6 19  1  0  0  0
  7  8  1  0  0  0
  7 36  1  0  0  0
  8  9  1  0  0  0
  9 10  1  0  0  0
 10 11  1  0  0  0
 10 37  1  0  0  0
 10 38  1  0  0  0
 11 12  1  0  0  0
 11 39  1  0  0  0
 11 40  1  0  0  0
 12 13  1  0  0  0
 12 41  1  0  0  0
 12 42  1  0  0  0
 13 18  1  0  0  0
 13 14  1  0  0  0
 14 15  1  0  0  0
 14 43  1  0  0  0
 14 44  1  0  0  0
 15 16  1  0  0  0
 15 45  1  0  0  0
 15 46  1  0  0  0
 16 17  1  0  0  0
 17 18  1  0  0  0
 17 47  1  0  0  0
 17 48  1  0  0  0
 18 49  1  0  0  0
 18 50  1  0  0  0
 19 20  2  0  0  0
 19 23  1  0  0  0
 20 21  1  0  0  0
 20 56  1  0  0  0
 21 22  2  0  0  0
 21 51  1  0  0  0
 23 24  1  0  0  0
 23 52  1  0  0  0
 24 29  2  0  0  0
 24 25  1  0  0  0
 25 26  2  0  0  0
 25 53  1  0  0  0
 26 27  1  0  0  0
 26 54  1  0  0  0
 27 28  2  0  0  0
 27 31  1  0  0  0
 28 29  1  0  0  0
 28 30  1  0  0  0
 29 55  1  0  0  0
M  CHG  1  20   1
M  END
> <s_m_source_file>
/Users/andrea/Development/mcce-charges/epik_inhibitors/output/Gefitinib/Gefitinib-input.mol2

> <i_m_source_file_index>
1

> <r_epik_Ionization_Penalty>
  6.3071

> <r_epik_Ionization_Penalty_Charging>
  6.0711

> <r_epik_Ionization_Penalty_Neutral>
  0.2360

> <r_epik_State_Penalty>
  6.3660

> <i_epik_Tot_Q>
1

$$$$
~{N}-(3-chloro-4-fluoro-phenyl)-7-methoxy-6-(3-morpholinopropoxy)quinazolin-4-amine
                    3D
 Structure written by MMmdl.
 57 60  0  0  1  0            999 V2000
   -0.1002   -2.1051    5.6392 C   0  0  0  0  0  0
    1.1895   -1.9793    5.0516 O   0  0  0  0  0  0
    1.5743   -2.9699    4.1989 C   0  0  0  0  0  0
    2.2530   -4.0830    4.7036 C   0  0  0  0  0  0
    2.6675   -5.1220    3.8739 C   0  0  0  0  0  0
    2.3820   -5.0193    2.5026 C   0  0  0  0  0  0
    1.7000   -3.9033    1.9874 C   0  0  0  0  0  0
    1.2972   -2.8797    2.8394 C   0  0  0  0  0  0
    0.6330   -1.7950    2.3306 O   0  0  0  0  0  0
    1.3179   -1.0276    1.3495 C   0  0  0  0  0  0
    0.8517    0.4200    1.4459 C   0  0  0  0  0  0
    1.1265    1.0393    2.8099 C   0  0  0  0  0  0
    2.5492    1.0487    3.1440 N   0  3  0  0  0  0
    3.2453    2.1290    2.4314 C   0  0  0  0  0  0
    4.7249    2.1260    2.8050 C   0  0  0  0  0  0
    4.8817    2.2782    4.2162 O   0  0  0  0  0  0
    4.2352    1.2145    4.9163 C   0  0  0  0  0  0
    2.7439    1.1944    4.5933 C   0  0  0  0  0  0
    2.8117   -6.0765    1.7055 C   0  0  0  0  0  0
    3.4661   -7.1548    2.1764 N   0  3  0  0  0  0
    3.6829   -7.1434    3.5014 C   0  0  0  0  0  0
    3.3190   -6.1849    4.3773 N   0  0  0  0  0  0
    2.5593   -6.0433    0.3114 N   0  0  0  0  0  0
    2.3463   -7.0562   -0.6370 C   0  0  0  0  0  0
    2.7276   -6.8596   -1.9643 C   0  0  0  0  0  0
    2.5166   -7.8660   -2.9068 C   0  0  0  0  0  0
    1.9243   -9.0688   -2.5222 C   0  0  0  0  0  0
    1.5430   -9.2653   -1.1948 C   0  0  0  0  0  0
    1.7539   -8.2590   -0.2523 C   0  0  0  0  0  0
    0.8095  -10.7469   -0.7144 Cl  0  0  0  0  0  0
    1.7269  -10.0261   -3.4399 F   0  0  0  0  0  0
   -0.2866   -1.2469    6.3016 H   0  0  0  0  0  0
   -0.1478   -3.0361    6.2231 H   0  0  0  0  0  0
   -0.8632   -2.1296    4.8472 H   0  0  0  0  0  0
    2.4609   -4.1359    5.7713 H   0  0  0  0  0  0
    1.4750   -3.8159    0.9270 H   0  0  0  0  0  0
    2.4014   -1.0834    1.5310 H   0  0  0  0  0  0
    1.0927   -1.4262    0.3493 H   0  0  0  0  0  0
    1.3752    1.0248    0.6908 H   0  0  0  0  0  0
   -0.2326    0.4687    1.2673 H   0  0  0  0  0  0
    0.7698    2.0798    2.8187 H   0  0  0  0  0  0
    0.6002    0.4646    3.5863 H   0  0  0  0  0  0
    3.1440    1.9774    1.3466 H   0  0  0  0  0  0
    2.8022    3.0967    2.7094 H   0  0  0  0  0  0
    5.1795    1.1737    2.4945 H   0  0  0  0  0  0
    5.2333    2.9582    2.2960 H   0  0  0  0  0  0
    4.6798    0.2543    4.6159 H   0  0  0  0  0  0
    4.3653    1.3559    5.9994 H   0  0  0  0  0  0
    2.2862    2.1356    4.9319 H   0  0  0  0  0  0
    2.2709    0.3486    5.1137 H   0  0  0  0  0  0
    4.2073   -7.9970    3.9134 H   0  0  0  0  0  0
    2.5021   -5.0788   -0.2144 H   0  0  0  0  0  0
    3.1897   -5.9261   -2.2751 H   0  0  0  0  0  0
    2.8147   -7.7129   -3.9398 H   0  0  0  0  0  0
    1.4580   -8.4091    0.7838 H   0  0  0  0  0  0
    2.9709    0.0842    2.8248 H   0  0  0  0  0  0
    3.7765   -7.9541    1.4873 H   0  0  0  0  0  0
  1  2  1  0  0  0
  1 32  1  0  0  0
  1 33  1  0  0  0
  1 34  1  0  0  0
  2  3  1  0  0  0
  3  8  2  0  0  0
  3  4  1  0  0  0
  4  5  2  0  0  0
  4 35  1  0  0  0
  5 22  1  0  0  0
  5  6  1  0  0  0
  6  7  2  0  0  0
  6 19  1  0  0  0
  7  8  1  0  0  0
  7 36  1  0  0  0
  8  9  1  0  0  0
  9 10  1  0  0  0
 10 11  1  0  0  0
 10 37  1  0  0  0
 10 38  1  0  0  0
 11 12  1  0  0  0
 11 39  1  0  0  0
 11 40  1  0  0  0
 12 13  1  0  0  0
 12 41  1  0  0  0
 12 42  1  0  0  0
 13 18  1  0  0  0
 13 14  1  0  0  0
 13 56  1  0  0  0
 14 15  1  0  0  0
 14 43  1  0  0  0
 14 44  1  0  0  0
 15 16  1  0  0  0
 15 45  1  0  0  0
 15 46  1  0  0  0
 16 17  1  0  0  0
 17 18  1  0  0  0
 17 47  1  0  0  0
 17 48  1  0  0  0
 18 49  1  0  0  0
 18 50  1  0  0  0
 19 20  2  0  0  0
 19 23  1  0  0  0
 20 21  1  0  0  0
 20 57  1  0  0  0
 21 22  2  0  0  0
 21 51  1  0  0  0
 23 24  1  0  0  0
 23 52  1  0  0  0
 24 29  2  0  0  0
 24 25  1  0  0  0
 25 26  2  0  0  0
 25 53  1  0  0  0
 26 27  1  0  0  0
 26 54  1  0  0  0
 27 28  2  0  0  0
 27 31  1  0  0  0
 28 29  1  0  0  0
 28 30  1  0  0  0
 29 55  1  0  0  0
M  CHG  2  13   1  20   1
M  END
> <s_m_source_file>
/Users/andrea/Development/mcce-charges/epik_inhibitors/output/Gefitinib/Gefitinib-input.mol2

> <i_m_source_file_index>
1

> <r_epik_Ionization_Penalty>
  6.9201

> <r_epik_Ionization_Penalty_Charging>
  6.8768

> <r_epik_Ionization_Penalty_Neutral>
  0.0433

> <r_epik_State_Penalty>
  6.9947

> <i_epik_Tot_Q>
2

$$$$
~{N}-(3-chloro-4-fluoro-phenyl)-7-methoxy-6-(3-morpholinopropoxy)quinazolin-4-amine
                    3D
 Structure written by MMmdl.
 54 57  0  0  1  0            999 V2000
   -0.0976   -2.1021    5.6386 C   0  0  0  0  0  0
    1.1923   -1.9778    5.0511 O   0  0  0  0  0  0
    1.5760   -2.9690    4.1986 C   0  0  0  0  0  0
    2.2524   -4.0833    4.7037 C   0  0  0  0  0  0
    2.6669   -5.1223    3.8740 C   0  0  0  0  0  0
    2.3820   -5.0193    2.5026 C   0  0  0  0  0  0
    1.7010   -3.9028    1.9872 C   0  0  0  0  0  0
    1.2992   -2.8786    2.8391 C   0  0  0  0  0  0
    0.6360   -1.7934    2.3301 O   0  0  0  0  0  0
    1.3215   -1.0268    1.3488 C   0  0  0  0  0  0
    0.8567    0.4212    1.4449 C   0  0  0  0  0  0
    1.1322    1.0405    2.8088 C   0  0  0  0  0  0
    2.5549    1.0487    3.1428 N   0  0  0  0  0  0
    3.2520    2.1282    2.4299 C   0  0  0  0  0  0
    4.7316    2.1239    2.8034 C   0  0  0  0  0  0
    4.8886    2.2762    4.2146 O   0  0  0  0  0  0
    4.2412    1.2132    4.9150 C   0  0  0  0  0  0
    2.7499    1.1945    4.5921 C   0  0  0  0  0  0
    2.8114   -6.0767    1.7056 C   0  0  0  0  0  0
    3.4650   -7.1554    2.1766 N   0  5  0  0  0  0
    3.6815   -7.1441    3.5016 C   0  0  0  0  0  0
    3.3178   -6.1855    4.3775 N   0  0  0  0  0  0
    2.5593   -6.0433    0.3114 N   0  0  0  0  0  0
    2.3463   -7.0561   -0.6371 C   0  0  0  0  0  0
    2.7279   -6.8595   -1.9643 C   0  0  0  0  0  0
    2.5169   -7.8657   -2.9070 C   0  0  0  0  0  0
    1.9243   -9.0685   -2.5226 C   0  0  0  0  0  0
    1.5427   -9.2650   -1.1953 C   0  0  0  0  0  0
    1.7536   -8.2588   -0.2526 C   0  0  0  0  0  0
    0.8089  -10.7465   -0.7152 Cl  0  0  0  0  0  0
    1.7270  -10.0257   -3.4404 F   0  0  0  0  0  0
   -0.2832   -1.2436    6.3008 H   0  0  0  0  0  0
   -0.1464   -3.0330    6.2227 H   0  0  0  0  0  0
   -0.8605   -2.1258    4.8465 H   0  0  0  0  0  0
    2.4507   -4.1469    5.6818 H   0  0  0  0  0  0
    1.5053   -3.8446    1.0083 H   0  0  0  0  0  0
    2.4050   -1.0836    1.5303 H   0  0  0  0  0  0
    1.0959   -1.4254    0.3487 H   0  0  0  0  0  0
    1.3807    1.0254    0.6897 H   0  0  0  0  0  0
   -0.2276    0.4709    1.2664 H   0  0  0  0  0  0
    0.7764    2.0814    2.8175 H   0  0  0  0  0  0
    0.6054    0.4665    3.5853 H   0  0  0  0  0  0
    3.1505    1.9765    1.3452 H   0  0  0  0  0  0
    2.8098    3.0963    2.7078 H   0  0  0  0  0  0
    5.1853    1.1711    2.4931 H   0  0  0  0  0  0
    5.2407    2.9554    2.2943 H   0  0  0  0  0  0
    4.6849    0.2525    4.6147 H   0  0  0  0  0  0
    4.3716    1.3547    5.9980 H   0  0  0  0  0  0
    2.2930    2.1361    4.9306 H   0  0  0  0  0  0
    2.2761    0.3492    5.1127 H   0  0  0  0  0  0
    4.1683   -7.9564    3.8230 H   0  0  0  0  0  0
    3.1902   -5.9260   -2.2750 H   0  0  0  0  0  0
    2.8153   -7.7126   -3.9399 H   0  0  0  0  0  0
    1.4575   -8.4090    0.7834 H   0  0  0  0  0  0
  1  2  1  0  0  0
  1 32  1  0  0  0
  1 33  1  0  0  0
  1 34  1  0  0  0
  2  3  1  0  0  0
  3  8  1  0  0  0
  3  4  2  0  0  0
  4 35  1  0  0  0
  4  5  1  0  0  0
  5  6  2  0  0  0
  5 22  1  0  0  0
  6 19  1  0  0  0
  6  7  1  0  0  0
  7 36  1  0  0  0
  7  8  2  0  0  0
  8  9  1  0  0  0
  9 10  1  0  0  0
 10 11  1  0  0  0
 10 37  1  0  0  0
 10 38  1  0  0  0
 11 12  1  0  0  0
 11 39  1  0  0  0
 11 40  1  0  0  0
 12 13  1  0  0  0
 12 41  1  0  0  0
 12 42  1  0  0  0
 13 18  1  0  0  0
 13 14  1  0  0  0
 14 15  1  0  0  0
 14 43  1  0  0  0
 14 44  1  0  0  0
 15 16  1  0  0  0
 15 45  1  0  0  0
 15 46  1  0  0  0
 16 17  1  0  0  0
 17 18  1  0  0  0
 17 47  1  0  0  0
 17 48  1  0  0  0
 18 49  1  0  0  0
 18 50  1  0  0  0
 19 23  2  0  0  0
 19 20  1  0  0  0
 20 21  1  0  0  0
 21 22  2  0  0  0
 21 51  1  0  0  0
 23 24  1  0  0  0
 24 29  2  0  0  0
 24 25  1  0  0  0
 25 26  2  0  0  0
 25 52  1  0  0  0
 26 27  1  0  0  0
 26 53  1  0  0  0
 27 28  2  0  0  0
 27 31  1  0  0  0
 28 29  1  0  0  0
 28 30  1  0  0  0
 29 54  1  0  0  0
M  CHG  1  20  -1
M  END
> <s_m_source_file>
/Users/andrea/Development/mcce-charges/epik_inhibitors/output/Gefitinib/Gefitinib-input.mol2

> <i_m_source_file_index>
1

> <r_epik_Ionization_Penalty>
  9.1287

> <r_epik_Ionization_Penalty_Charging>
  1.2005

> <r_epik_Ionization_Penalty_Neutral>
  7.9282

> <r_epik_State_Penalty>
  7.7275

> <i_epik_Tot_Q>
-1

> <s_epik_Chemistry_Notes>
This compound has an imine and may undergo hydrolysis.

$$$$
~{N}-(3-chloro-4-fluoro-phenyl)-7-methoxy-6-(3-morpholinopropoxy)quinazolin-4-amine
                    3D
 Structure written by MMmdl.
 54 57  0  0  1  0            999 V2000
   -0.0976   -2.1021    5.6386 C   0  0  0  0  0  0
    1.1923   -1.9778    5.0511 O   0  0  0  0  0  0
    1.5760   -2.9690    4.1986 C   0  0  0  0  0  0
    2.2524   -4.0833    4.7037 C   0  0  0  0  0  0
    2.6669   -5.1223    3.8740 C   0  0  0  0  0  0
    2.3820   -5.0193    2.5026 C   0  0  0  0  0  0
    1.7010   -3.9028    1.9872 C   0  0  0  0  0  0
    1.2992   -2.8786    2.8391 C   0  0  0  0  0  0
    0.6360   -1.7934    2.3301 O   0  0  0  0  0  0
    1.3215   -1.0268    1.3488 C   0  0  0  0  0  0
    0.8567    0.4212    1.4449 C   0  0  0  0  0  0
    1.1322    1.0405    2.8088 C   0  0  0  0  0  0
    2.5549    1.0487    3.1428 N   0  0  0  0  0  0
    3.2520    2.1282    2.4299 C   0  0  0  0  0  0
    4.7316    2.1239    2.8034 C   0  0  0  0  0  0
    4.8886    2.2762    4.2146 O   0  0  0  0  0  0
    4.2412    1.2132    4.9150 C   0  0  0  0  0  0
    2.7499    1.1945    4.5921 C   0  0  0  0  0  0
    2.8114   -6.0767    1.7056 C   0  0  0  0  0  0
    3.4650   -7.1554    2.1766 N   0  5  0  0  0  0
    3.6815   -7.1441    3.5016 C   0  0  0  0  0  0
    3.3178   -6.1855    4.3775 N   0  0  0  0  0  0
    2.5593   -6.0433    0.3114 N   0  0  0  0  0  0
    2.4353   -4.9859   -0.6037 C   0  0  0  0  0  0
    1.6116   -5.1241   -1.7209 C   0  0  0  0  0  0
    1.4877   -4.0735   -2.6301 C   0  0  0  0  0  0
    2.1874   -2.8849   -2.4222 C   0  0  0  0  0  0
    3.0111   -2.7469   -1.3048 C   0  0  0  0  0  0
    3.1351   -3.7974   -0.3957 C   0  0  0  0  0  0
    3.8790   -1.2831   -1.0439 Cl  0  0  0  0  0  0
    2.0591   -1.8846   -3.3057 F   0  0  0  0  0  0
   -0.2832   -1.2436    6.3008 H   0  0  0  0  0  0
   -0.1464   -3.0330    6.2227 H   0  0  0  0  0  0
   -0.8605   -2.1258    4.8465 H   0  0  0  0  0  0
    2.4507   -4.1469    5.6818 H   0  0  0  0  0  0
    1.5053   -3.8446    1.0083 H   0  0  0  0  0  0
    2.4050   -1.0836    1.5303 H   0  0  0  0  0  0
    1.0959   -1.4254    0.3487 H   0  0  0  0  0  0
    1.3807    1.0254    0.6897 H   0  0  0  0  0  0
   -0.2276    0.4709    1.2664 H   0  0  0  0  0  0
    0.7764    2.0814    2.8175 H   0  0  0  0  0  0
    0.6054    0.4665    3.5853 H   0  0  0  0  0  0
    3.1505    1.9765    1.3452 H   0  0  0  0  0  0
    2.8098    3.0963    2.7078 H   0  0  0  0  0  0
    5.1853    1.1711    2.4931 H   0  0  0  0  0  0
    5.2407    2.9554    2.2943 H   0  0  0  0  0  0
    4.6849    0.2525    4.6147 H   0  0  0  0  0  0
    4.3716    1.3547    5.9980 H   0  0  0  0  0  0
    2.2930    2.1361    4.9306 H   0  0  0  0  0  0
    2.2761    0.3492    5.1127 H   0  0  0  0  0  0
    4.1683   -7.9564    3.8230 H   0  0  0  0  0  0
    1.0620   -6.0460   -1.8930 H   0  0  0  0  0  0
    0.8455   -4.1811   -3.4992 H   0  0  0  0  0  0
    3.7764   -3.6929    0.4769 H   0  0  0  0  0  0
  1  2  1  0  0  0
  1 32  1  0  0  0
  1 33  1  0  0  0
  1 34  1  0  0  0
  2  3  1  0  0  0
  3  8  1  0  0  0
  3  4  2  0  0  0
  4 35  1  0  0  0
  4  5  1  0  0  0
  5  6  2  0  0  0
  5 22  1  0  0  0
  6 19  1  0  0  0
  6  7  1  0  0  0
  7 36  1  0  0  0
  7  8  2  0  0  0
  8  9  1  0  0  0
  9 10  1  0  0  0
 10 11  1  0  0  0
 10 37  1  0  0  0
 10 38  1  0  0  0
 11 12  1  0  0  0
 11 39  1  0  0  0
 11 40  1  0  0  0
 12 13  1  0  0  0
 12 41  1  0  0  0
 12 42  1  0  0  0
 13 18  1  0  0  0
 13 14  1  0  0  0
 14 15  1  0  0  0
 14 43  1  0  0  0
 14 44  1  0  0  0
 15 16  1  0  0  0
 15 45  1  0  0  0
 15 46  1  0  0  0
 16 17  1  0  0  0
 17 18  1  0  0  0
 17 47  1  0  0  0
 17 48  1  0  0  0
 18 49  1  0  0  0
 18 50  1  0  0  0
 19 23  2  0  0  0
 19 20  1  0  0  0
 20 21  1  0  0  0
 21 22  2  0  0  0
 21 51  1  0  0  0
 23 24  1  0  0  0
 24 29  2  0  0  0
 24 25  1  0  0  0
 25 26  2  0  0  0
 25 52  1  0  0  0
 26 27  1  0  0  0
 26 53  1  0  0  0
 27 28  2  0  0  0
 27 31  1  0  0  0
 28 29  1  0  0  0
 28 30  1  0  0  0
 29 54  1  0  0  0
M  CHG  1  20  -1
M  END
> <s_m_source_file>
/Users/andrea/Development/mcce-charges/epik_inhibitors/output/Gefitinib/Gefitinib-input.mol2

> <i_m_source_file_index>
1

> <r_epik_Ionization_Penalty>
  9.1287

> <r_epik_Ionization_Penalty_Charging>
  1.2005

> <r_epik_Ionization_Penalty_Neutral>
  7.9282

> <r_epik_State_Penalty>
  7.7275

> <i_epik_Tot_Q>
-1

> <s_epik_Chemistry_Notes>
This compound has an imine and may undergo hydrolysis.

$$$$
~{N}-(3-chloro-4-fluoro-phenyl)-7-methoxy-6-(3-morpholinopropoxy)quinazolin-4-amine
                    3D
 Structure written by MMmdl.
 55 58  0  0  1  0            999 V2000
   -0.0976   -2.1021    5.6386 C   0  0  0  0  0  0
    1.1923   -1.9778    5.0511 O   0  0  0  0  0  0
    1.5760   -2.9690    4.1986 C   0  0  0  0  0  0
    2.2524   -4.0833    4.7037 C   0  0  0  0  0  0
    2.6669   -5.1223    3.8740 C   0  0  0  0  0  0
    2.3820   -5.0193    2.5026 C   0  0  0  0  0  0
    1.7010   -3.9028    1.9872 C   0  0  0  0  0  0
    1.2992   -2.8786    2.8391 C   0  0  0  0  0  0
    0.6360   -1.7934    2.3301 O   0  0  0  0  0  0
    1.3215   -1.0268    1.3488 C   0  0  0  0  0  0
    0.8567    0.4212    1.4449 C   0  0  0  0  0  0
    1.1322    1.0405    2.8088 C   0  0  0  0  0  0
    2.5549    1.0487    3.1428 N   0  0  0  0  0  0
    3.2520    2.1282    2.4299 C   0  0  0  0  0  0
    4.7316    2.1239    2.8034 C   0  0  0  0  0  0
    4.8886    2.2762    4.2146 O   0  0  0  0  0  0
    4.2412    1.2132    4.9150 C   0  0  0  0  0  0
    2.7499    1.1945    4.5921 C   0  0  0  0  0  0
    2.8114   -6.0767    1.7056 C   0  0  0  0  0  0
    3.4650   -7.1554    2.1766 N   0  0  0  0  0  0
    3.6815   -7.1441    3.5016 C   0  0  0  0  0  0
    3.3178   -6.1855    4.3775 N   0  0  0  0  0  0
    2.5593   -6.0433    0.3114 N   0  0  0  0  0  0
    2.3463   -7.0561   -0.6371 C   0  0  0  0  0  0
    2.7279   -6.8595   -1.9643 C   0  0  0  0  0  0
    2.5169   -7.8657   -2.9070 C   0  0  0  0  0  0
    1.9243   -9.0685   -2.5226 C   0  0  0  0  0  0
    1.5427   -9.2650   -1.1953 C   0  0  0  0  0  0
    1.7536   -8.2588   -0.2526 C   0  0  0  0  0  0
    0.8089  -10.7465   -0.7152 Cl  0  0  0  0  0  0
    1.7270  -10.0257   -3.4404 F   0  0  0  0  0  0
   -0.2832   -1.2436    6.3008 H   0  0  0  0  0  0
   -0.1464   -3.0330    6.2227 H   0  0  0  0  0  0
   -0.8605   -2.1258    4.8465 H   0  0  0  0  0  0
    2.4507   -4.1469    5.6818 H   0  0  0  0  0  0
    1.5053   -3.8446    1.0083 H   0  0  0  0  0  0
    2.4050   -1.0836    1.5303 H   0  0  0  0  0  0
    1.0959   -1.4254    0.3487 H   0  0  0  0  0  0
    1.3807    1.0254    0.6897 H   0  0  0  0  0  0
   -0.2276    0.4709    1.2664 H   0  0  0  0  0  0
    0.7764    2.0814    2.8175 H   0  0  0  0  0  0
    0.6054    0.4665    3.5853 H   0  0  0  0  0  0
    3.1505    1.9765    1.3452 H   0  0  0  0  0  0
    2.8098    3.0963    2.7078 H   0  0  0  0  0  0
    5.1853    1.1711    2.4931 H   0  0  0  0  0  0
    5.2407    2.9554    2.2943 H   0  0  0  0  0  0
    4.6849    0.2525    4.6147 H   0  0  0  0  0  0
    4.3716    1.3547    5.9980 H   0  0  0  0  0  0
    2.2930    2.1361    4.9306 H   0  0  0  0  0  0
    2.2761    0.3492    5.1127 H   0  0  0  0  0  0
    4.1683   -7.9564    3.8230 H   0  0  0  0  0  0
    3.8146   -8.0034    1.5694 H   0  0  0  0  0  0
    3.1902   -5.9260   -2.2750 H   0  0  0  0  0  0
    2.8153   -7.7126   -3.9399 H   0  0  0  0  0  0
    1.4575   -8.4090    0.7834 H   0  0  0  0  0  0
  1  2  1  0  0  0
  1 32  1  0  0  0
  1 33  1  0  0  0
  1 34  1  0  0  0
  2  3  1  0  0  0
  3  8  1  0  0  0
  3  4  2  0  0  0
  4 35  1  0  0  0
  4  5  1  0  0  0
  5  6  2  0  0  0
  5 22  1  0  0  0
  6 19  1  0  0  0
  6  7  1  0  0  0
  7 36  1  0  0  0
  7  8  2  0  0  0
  8  9  1  0  0  0
  9 10  1  0  0  0
 10 11  1  0  0  0
 10 37  1  0  0  0
 10 38  1  0  0  0
 11 12  1  0  0  0
 11 39  1  0  0  0
 11 40  1  0  0  0
 12 13  1  0  0  0
 12 41  1  0  0  0
 12 42  1  0  0  0
 13 18  1  0  0  0
 13 14  1  0  0  0
 14 15  1  0  0  0
 14 43  1  0  0  0
 14 44  1  0  0  0
 15 16  1  0  0  0
 15 45  1  0  0  0
 15 46  1  0  0  0
 16 17  1  0  0  0
 17 18  1  0  0  0
 17 47  1  0  0  0
 17 48  1  0  0  0
 18 49  1  0  0  0
 18 50  1  0  0  0
 19 23  2  0  0  0
 19 20  1  0  0  0
 20 21  1  0  0  0
 20 52  1  0  0  0
 21 22  2  0  0  0
 21 51  1  0  0  0
 23 24  1  0  0  0
 24 29  2  0  0  0
 24 25  1  0  0  0
 25 26  2  0  0  0
 25 53  1  0  0  0
 26 27  1  0  0  0
 26 54  1  0  0  0
 27 28  2  0  0  0
 27 31  1  0  0  0
 28 29  1  0  0  0
 28 30  1  0  0  0
 29 55  1  0  0  0
M  END
> <s_m_source_file>
/Users/andrea/Development/mcce-charges/epik_inhibitors/output/Gefitinib/Gefitinib-input.mol2

> <i_m_source_file_index>
1

> <r_lp_tautomer_probability>
9.99989000120999e-06

> <r_epik_Ionization_Penalty>
  4.9702

> <r_epik_Ionization_Penalty_Charging>
  4.7739

> <r_epik_Ionization_Penalty_Neutral>
  0.1963

> <r_epik_State_Penalty>
  7.8851

> <i_epik_Tot_Q>
0

$$$$
~{N}-(3-chloro-4-fluoro-phenyl)-7-methoxy-6-(3-morpholinopropoxy)quinazolin-4-amine
                    3D
 Structure written by MMmdl.
 55 58  0  0  1  0            999 V2000
   -0.0976   -2.1021    5.6386 C   0  0  0  0  0  0
    1.1923   -1.9778    5.0511 O   0  0  0  0  0  0
    1.5760   -2.9690    4.1986 C   0  0  0  0  0  0
    2.2524   -4.0833    4.7037 C   0  0  0  0  0  0
    2.6669   -5.1223    3.8740 C   0  0  0  0  0  0
    2.3820   -5.0193    2.5026 C   0  0  0  0  0  0
    1.7010   -3.9028    1.9872 C   0  0  0  0  0  0
    1.2992   -2.8786    2.8391 C   0  0  0  0  0  0
    0.6360   -1.7934    2.3301 O   0  0  0  0  0  0
    1.3215   -1.0268    1.3488 C   0  0  0  0  0  0
    0.8567    0.4212    1.4449 C   0  0  0  0  0  0
    1.1322    1.0405    2.8088 C   0  0  0  0  0  0
    2.5549    1.0487    3.1428 N   0  0  0  0  0  0
    3.2520    2.1282    2.4299 C   0  0  0  0  0  0
    4.7316    2.1239    2.8034 C   0  0  0  0  0  0
    4.8886    2.2762    4.2146 O   0  0  0  0  0  0
    4.2412    1.2132    4.9150 C   0  0  0  0  0  0
    2.7499    1.1945    4.5921 C   0  0  0  0  0  0
    2.8114   -6.0767    1.7056 C   0  0  0  0  0  0
    3.4650   -7.1554    2.1766 N   0  0  0  0  0  0
    3.6815   -7.1441    3.5016 C   0  0  0  0  0  0
    3.3178   -6.1855    4.3775 N   0  0  0  0  0  0
    2.5593   -6.0433    0.3114 N   0  0  0  0  0  0
    2.4353   -4.9859   -0.6037 C   0  0  0  0  0  0
    1.6116   -5.1241   -1.7209 C   0  0  0  0  0  0
    1.4877   -4.0735   -2.6301 C   0  0  0  0  0  0
    2.1874   -2.8849   -2.4222 C   0  0  0  0  0  0
    3.0111   -2.7469   -1.3048 C   0  0  0  0  0  0
    3.1351   -3.7974   -0.3957 C   0  0  0  0  0  0
    3.8790   -1.2831   -1.0439 Cl  0  0  0  0  0  0
    2.0591   -1.8846   -3.3057 F   0  0  0  0  0  0
   -0.2832   -1.2436    6.3008 H   0  0  0  0  0  0
   -0.1464   -3.0330    6.2227 H   0  0  0  0  0  0
   -0.8605   -2.1258    4.8465 H   0  0  0  0  0  0
    2.4507   -4.1469    5.6818 H   0  0  0  0  0  0
    1.5053   -3.8446    1.0083 H   0  0  0  0  0  0
    2.4050   -1.0836    1.5303 H   0  0  0  0  0  0
    1.0959   -1.4254    0.3487 H   0  0  0  0  0  0
    1.3807    1.0254    0.6897 H   0  0  0  0  0  0
   -0.2276    0.4709    1.2664 H   0  0  0  0  0  0
    0.7764    2.0814    2.8175 H   0  0  0  0  0  0
    0.6054    0.4665    3.5853 H   0  0  0  0  0  0
    3.1505    1.9765    1.3452 H   0  0  0  0  0  0
    2.8098    3.0963    2.7078 H   0  0  0  0  0  0
    5.1853    1.1711    2.4931 H   0  0  0  0  0  0
    5.2407    2.9554    2.2943 H   0  0  0  0  0  0
    4.6849    0.2525    4.6147 H   0  0  0  0  0  0
    4.3716    1.3547    5.9980 H   0  0  0  0  0  0
    2.2930    2.1361    4.9306 H   0  0  0  0  0  0
    2.2761    0.3492    5.1127 H   0  0  0  0  0  0
    4.1683   -7.9564    3.8230 H   0  0  0  0  0  0
    3.8146   -8.0034    1.5694 H   0  0  0  0  0  0
    1.0620   -6.0460   -1.8930 H   0  0  0  0  0  0
    0.8455   -4.1811   -3.4992 H   0  0  0  0  0  0
    3.7764   -3.6929    0.4769 H   0  0  0  0  0  0
  1  2  1  0  0  0
  1 32  1  0  0  0
  1 33  1  0  0  0
  1 34  1  0  0  0
  2  3  1  0  0  0
  3  8  1  0  0  0
  3  4  2  0  0  0
  4 35  1  0  0  0
  4  5  1  0  0  0
  5  6  2  0  0  0
  5 22  1  0  0  0
  6 19  1  0  0  0
  6  7  1  0  0  0
  7 36  1  0  0  0
  7  8  2  0  0  0
  8  9  1  0  0  0
  9 10  1  0  0  0
 10 11  1  0  0  0
 10 37  1  0  0  0
 10 38  1  0  0  0
 11 12  1  0  0  0
 11 39  1  0  0  0
 11 40  1  0  0  0
 12 13  1  0  0  0
 12 41  1  0  0  0
 12 42  1  0  0  0
 13 18  1  0  0  0
 13 14  1  0  0  0
 14 15  1  0  0  0
 14 43  1  0  0  0
 14 44  1  0  0  0
 15 16  1  0  0  0
 15 45  1  0  0  0
 15 46  1  0  0  0
 16 17  1  0  0  0
 17 18  1  0  0  0
 17 47  1  0  0  0
 17 48  1  0  0  0
 18 49  1  0  0  0
 18 50  1  0  0  0
 19 23  2  0  0  0
 19 20  1  0  0  0
 20 21  1  0  0  0
 20 52  1  0  0  0
 21 22  2  0  0  0
 21 51  1  0  0  0
 23 24  1  0  0  0
 24 29  2  0  0  0
 24 25  1  0  0  0
 25 26  2  0  0  0
 25 53  1  0  0  0
 26 27  1  0  0  0
 26 54  1  0  0  0
 27 28  2  0  0  0
 27 31  1  0  0  0
 28 29  1  0  0  0
 28 30  1  0  0  0
 29 55  1  0  0  0
M  END
> <s_m_source_file>
/Users/andrea/Development/mcce-charges/epik_inhibitors/output/Gefitinib/Gefitinib-input.mol2

> <i_m_source_file_index>
1

> <r_lp_tautomer_probability>
9.99989000120999e-06

> <r_epik_Ionization_Penalty>
  4.9702

> <r_epik_Ionization_Penalty_Charging>
  4.7739

> <r_epik_Ionization_Penalty_Neutral>
  0.1963

> <r_epik_State_Penalty>
  7.8851

> <i_epik_Tot_Q>
0

$$$$
~{N}-(3-chloro-4-fluoro-phenyl)-7-methoxy-6-(3-morpholinopropoxy)quinazolin-4-amine
                    3D
 Structure written by MMmdl.
 55 58  0  0  1  0            999 V2000
   -0.0976   -2.1021    5.6386 C   0  0  0  0  0  0
    1.1923   -1.9778    5.0511 O   0  0  0  0  0  0
    1.5760   -2.9690    4.1986 C   0  0  0  0  0  0
    2.2524   -4.0833    4.7037 C   0  0  0  0  0  0
    2.6669   -5.1223    3.8740 C   0  0  0  0  0  0
    2.3820   -5.0193    2.5026 C   0  0  0  0  0  0
    1.7010   -3.9028    1.9872 C   0  0  0  0  0  0
    1.2992   -2.8786    2.8391 C   0  0  0  0  0  0
    0.6360   -1.7934    2.3301 O   0  0  0  0  0  0
    1.3215   -1.0268    1.3488 C   0  0  0  0  0  0
    0.8567    0.4212    1.4449 C   0  0  0  0  0  0
    1.1322    1.0405    2.8088 C   0  0  0  0  0  0
    2.5549    1.0487    3.1428 N   0  3  0  0  0  0
    3.2520    2.1282    2.4299 C   0  0  0  0  0  0
    4.7316    2.1239    2.8034 C   0  0  0  0  0  0
    4.8886    2.2762    4.2146 O   0  0  0  0  0  0
    4.2412    1.2132    4.9150 C   0  0  0  0  0  0
    2.7499    1.1945    4.5921 C   0  0  0  0  0  0
    2.8114   -6.0767    1.7056 C   0  0  0  0  0  0
    3.4650   -7.1554    2.1766 N   0  5  0  0  0  0
    3.6815   -7.1441    3.5016 C   0  0  0  0  0  0
    3.3178   -6.1855    4.3775 N   0  0  0  0  0  0
    2.5593   -6.0433    0.3114 N   0  0  0  0  0  0
    2.4353   -4.9859   -0.6037 C   0  0  0  0  0  0
    1.6116   -5.1241   -1.7209 C   0  0  0  0  0  0
    1.4877   -4.0735   -2.6301 C   0  0  0  0  0  0
    2.1874   -2.8849   -2.4222 C   0  0  0  0  0  0
    3.0111   -2.7469   -1.3048 C   0  0  0  0  0  0
    3.1351   -3.7974   -0.3957 C   0  0  0  0  0  0
    3.8790   -1.2831   -1.0439 Cl  0  0  0  0  0  0
    2.0591   -1.8846   -3.3057 F   0  0  0  0  0  0
   -0.2832   -1.2436    6.3008 H   0  0  0  0  0  0
   -0.1464   -3.0330    6.2227 H   0  0  0  0  0  0
   -0.8605   -2.1258    4.8465 H   0  0  0  0  0  0
    2.4507   -4.1469    5.6818 H   0  0  0  0  0  0
    1.5053   -3.8446    1.0083 H   0  0  0  0  0  0
    2.4050   -1.0836    1.5303 H   0  0  0  0  0  0
    1.0959   -1.4254    0.3487 H   0  0  0  0  0  0
    1.3807    1.0254    0.6897 H   0  0  0  0  0  0
   -0.2276    0.4709    1.2664 H   0  0  0  0  0  0
    0.7764    2.0814    2.8175 H   0  0  0  0  0  0
    0.6054    0.4665    3.5853 H   0  0  0  0  0  0
    3.1505    1.9765    1.3452 H   0  0  0  0  0  0
    2.8098    3.0963    2.7078 H   0  0  0  0  0  0
    5.1853    1.1711    2.4931 H   0  0  0  0  0  0
    5.2407    2.9554    2.2943 H   0  0  0  0  0  0
    4.6849    0.2525    4.6147 H   0  0  0  0  0  0
    4.3716    1.3547    5.9980 H   0  0  0  0  0  0
    2.2930    2.1361    4.9306 H   0  0  0  0  0  0
    2.2761    0.3492    5.1127 H   0  0  0  0  0  0
    4.1683   -7.9564    3.8230 H   0  0  0  0  0  0
    1.0620   -6.0460   -1.8930 H   0  0  0  0  0  0
    0.8455   -4.1811   -3.4992 H   0  0  0  0  0  0
    3.7764   -3.6929    0.4769 H   0  0  0  0  0  0
    2.9757    0.0837    2.8238 H   0  0  0  0  0  0
  1  2  1  0  0  0
  1 32  1  0  0  0
  1 33  1  0  0  0
  1 34  1  0  0  0
  2  3  1  0  0  0
  3  8  1  0  0  0
  3  4  2  0  0  0
  4 35  1  0  0  0
  4  5  1  0  0  0
  5  6  2  0  0  0
  5 22  1  0  0  0
  6 19  1  0  0  0
  6  7  1  0  0  0
  7 36  1  0  0  0
  7  8  2  0  0  0
  8  9  1  0  0  0
  9 10  1  0  0  0
 10 11  1  0  0  0
 10 37  1  0  0  0
 10 38  1  0  0  0
 11 12  1  0  0  0
 11 39  1  0  0  0
 11 40  1  0  0  0
 12 13  1  0  0  0
 12 41  1  0  0  0
 12 42  1  0  0  0
 13 18  1  0  0  0
 13 14  1  0  0  0
 13 55  1  0  0  0
 14 15  1  0  0  0
 14 43  1  0  0  0
 14 44  1  0  0  0
 15 16  1  0  0  0
 15 45  1  0  0  0
 15 46  1  0  0  0
 16 17  1  0  0  0
 17 18  1  0  0  0
 17 47  1  0  0  0
 17 48  1  0  0  0
 18 49  1  0  0  0
 18 50  1  0  0  0
 19 23  2  0  0  0
 19 20  1  0  0  0
 20 21  1  0  0  0
 21 22  2  0  0  0
 21 51  1  0  0  0
 23 24  1  0  0  0
 24 29  2  0  0  0
 24 25  1  0  0  0
 25 26  2  0  0  0
 25 52  1  0  0  0
 26 27  1  0  0  0
 26 53  1  0  0  0
 27 28  2  0  0  0
 27 31  1  0  0  0
 28 29  1  0  0  0
 28 30  1  0  0  0
 29 54  1  0  0  0
M  CHG  2  13   1  20  -1
M  END
> <s_m_source_file>
/Users/andrea/Development/mcce-charges/epik_inhibitors/output/Gefitinib/Gefitinib-input.mol2

> <i_m_source_file_index>
1

> <r_epik_Ionization_Penalty>
  9.6144

> <r_epik_Ionization_Penalty_Charging>
  1.9216

> <r_epik_Ionization_Penalty_Neutral>
  7.6928

> <r_epik_State_Penalty>
  8.2994

> <i_epik_Tot_Q>
0

> <s_epik_Chemistry_Notes>
This compound has an imine and may undergo hydrolysis.

$$$$
~{N}-(3-chloro-4-fluoro-phenyl)-7-methoxy-6-(3-morpholinopropoxy)quinazolin-4-amine
                    3D
 Structure written by MMmdl.
 55 58  0  0  1  0            999 V2000
   -0.0976   -2.1021    5.6386 C   0  0  0  0  0  0
    1.1923   -1.9778    5.0511 O   0  0  0  0  0  0
    1.5760   -2.9690    4.1986 C   0  0  0  0  0  0
    2.2524   -4.0833    4.7037 C   0  0  0  0  0  0
    2.6669   -5.1223    3.8740 C   0  0  0  0  0  0
    2.3820   -5.0193    2.5026 C   0  0  0  0  0  0
    1.7010   -3.9028    1.9872 C   0  0  0  0  0  0
    1.2992   -2.8786    2.8391 C   0  0  0  0  0  0
    0.6360   -1.7934    2.3301 O   0  0  0  0  0  0
    1.3215   -1.0268    1.3488 C   0  0  0  0  0  0
    0.8567    0.4212    1.4449 C   0  0  0  0  0  0
    1.1322    1.0405    2.8088 C   0  0  0  0  0  0
    2.5549    1.0487    3.1428 N   0  3  0  0  0  0
    3.2520    2.1282    2.4299 C   0  0  0  0  0  0
    4.7316    2.1239    2.8034 C   0  0  0  0  0  0
    4.8886    2.2762    4.2146 O   0  0  0  0  0  0
    4.2412    1.2132    4.9150 C   0  0  0  0  0  0
    2.7499    1.1945    4.5921 C   0  0  0  0  0  0
    2.8114   -6.0767    1.7056 C   0  0  0  0  0  0
    3.4650   -7.1554    2.1766 N   0  5  0  0  0  0
    3.6815   -7.1441    3.5016 C   0  0  0  0  0  0
    3.3178   -6.1855    4.3775 N   0  0  0  0  0  0
    2.5593   -6.0433    0.3114 N   0  0  0  0  0  0
    2.3463   -7.0561   -0.6371 C   0  0  0  0  0  0
    2.7279   -6.8595   -1.9643 C   0  0  0  0  0  0
    2.5169   -7.8657   -2.9070 C   0  0  0  0  0  0
    1.9243   -9.0685   -2.5226 C   0  0  0  0  0  0
    1.5427   -9.2650   -1.1953 C   0  0  0  0  0  0
    1.7536   -8.2588   -0.2526 C   0  0  0  0  0  0
    0.8089  -10.7465   -0.7152 Cl  0  0  0  0  0  0
    1.7270  -10.0257   -3.4404 F   0  0  0  0  0  0
   -0.2832   -1.2436    6.3008 H   0  0  0  0  0  0
   -0.1464   -3.0330    6.2227 H   0  0  0  0  0  0
   -0.8605   -2.1258    4.8465 H   0  0  0  0  0  0
    2.4507   -4.1469    5.6818 H   0  0  0  0  0  0
    1.5053   -3.8446    1.0083 H   0  0  0  0  0  0
    2.4050   -1.0836    1.5303 H   0  0  0  0  0  0
    1.0959   -1.4254    0.3487 H   0  0  0  0  0  0
    1.3807    1.0254    0.6897 H   0  0  0  0  0  0
   -0.2276    0.4709    1.2664 H   0  0  0  0  0  0
    0.7764    2.0814    2.8175 H   0  0  0  0  0  0
    0.6054    0.4665    3.5853 H   0  0  0  0  0  0
    3.1505    1.9765    1.3452 H   0  0  0  0  0  0
    2.8098    3.0963    2.7078 H   0  0  0  0  0  0
    5.1853    1.1711    2.4931 H   0  0  0  0  0  0
    5.2407    2.9554    2.2943 H   0  0  0  0  0  0
    4.6849    0.2525    4.6147 H   0  0  0  0  0  0
    4.3716    1.3547    5.9980 H   0  0  0  0  0  0
    2.2930    2.1361    4.9306 H   0  0  0  0  0  0
    2.2761    0.3492    5.1127 H   0  0  0  0  0  0
    4.1683   -7.9564    3.8230 H   0  0  0  0  0  0
    3.1902   -5.9260   -2.2750 H   0  0  0  0  0  0
    2.8153   -7.7126   -3.9399 H   0  0  0  0  0  0
    1.4575   -8.4090    0.7834 H   0  0  0  0  0  0
    2.9757    0.0837    2.8238 H   0  0  0  0  0  0
  1  2  1  0  0  0
  1 32  1  0  0  0
  1 33  1  0  0  0
  1 34  1  0  0  0
  2  3  1  0  0  0
  3  8  1  0  0  0
  3  4  2  0  0  0
  4 35  1  0  0  0
  4  5  1  0  0  0
  5  6  2  0  0  0
  5 22  1  0  0  0
  6 19  1  0  0  0
  6  7  1  0  0  0
  7 36  1  0  0  0
  7  8  2  0  0  0
  8  9  1  0  0  0
  9 10  1  0  0  0
 10 11  1  0  0  0
 10 37  1  0  0  0
 10 38  1  0  0  0
 11 12  1  0  0  0
 11 39  1  0  0  0
 11 40  1  0  0  0
 12 13  1  0  0  0
 12 41  1  0  0  0
 12 42  1  0  0  0
 13 18  1  0  0  0
 13 14  1  0  0  0
 13 55  1  0  0  0
 14 15  1  0  0  0
 14 43  1  0  0  0
 14 44  1  0  0  0
 15 16  1  0  0  0
 15 45  1  0  0  0
 15 46  1  0  0  0
 16 17  1  0  0  0
 17 18  1  0  0  0
 17 47  1  0  0  0
 17 48  1  0  0  0
 18 49  1  0  0  0
 18 50  1  0  0  0
 19 23  2  0  0  0
 19 20  1  0  0  0
 20 21  1  0  0  0
 21 22  2  0  0  0
 21 51  1  0  0  0
 23 24  1  0  0  0
 24 29  2  0  0  0
 24 25  1  0  0  0
 25 26  2  0  0  0
 25 52  1  0  0  0
 26 27  1  0  0  0
 26 53  1  0  0  0
 27 28  2  0  0  0
 27 31  1  0  0  0
 28 29  1  0  0  0
 28 30  1  0  0  0
 29 54  1  0  0  0
M  CHG  2  13   1  20  -1
M  END
> <s_m_source_file>
/Users/andrea/Development/mcce-charges/epik_inhibitors/output/Gefitinib/Gefitinib-input.mol2

> <i_m_source_file_index>
1

> <r_epik_Ionization_Penalty>
  9.6144

> <r_epik_Ionization_Penalty_Charging>
  1.9216

> <r_epik_Ionization_Penalty_Neutral>
  7.6928

> <r_epik_State_Penalty>
  8.2994

> <i_epik_Tot_Q>
0

> <s_epik_Chemistry_Notes>
This compound has an imine and may undergo hydrolysis.

$$$$
~{N}-(3-chloro-4-fluoro-phenyl)-7-methoxy-6-(3-morpholinopropoxy)quinazolin-4-amine
                    3D
 Structure written by MMmdl.
 56 59  0  0  1  0            999 V2000
   -0.0976   -2.1021    5.6386 C   0  0  0  0  0  0
    1.1923   -1.9778    5.0511 O   0  0  0  0  0  0
    1.5760   -2.9690    4.1986 C   0  0  0  0  0  0
    2.2524   -4.0833    4.7037 C   0  0  0  0  0  0
    2.6669   -5.1223    3.8740 C   0  0  0  0  0  0
    2.3820   -5.0193    2.5026 C   0  0  0  0  0  0
    1.7010   -3.9028    1.9872 C   0  0  0  0  0  0
    1.2992   -2.8786    2.8391 C   0  0  0  0  0  0
    0.6360   -1.7934    2.3301 O   0  0  0  0  0  0
    1.3215   -1.0268    1.3488 C   0  0  0  0  0  0
    0.8567    0.4212    1.4449 C   0  0  0  0  0  0
    1.1322    1.0405    2.8088 C   0  0  0  0  0  0
    2.5549    1.0487    3.1428 N   0  3  0  0  0  0
    3.2520    2.1282    2.4299 C   0  0  0  0  0  0
    4.7316    2.1239    2.8034 C   0  0  0  0  0  0
    4.8886    2.2762    4.2146 O   0  0  0  0  0  0
    4.2412    1.2132    4.9150 C   0  0  0  0  0  0
    2.7499    1.1945    4.5921 C   0  0  0  0  0  0
    2.8114   -6.0767    1.7056 C   0  0  0  0  0  0
    3.4650   -7.1554    2.1766 N   0  0  0  0  0  0
    3.6815   -7.1441    3.5016 C   0  0  0  0  0  0
    3.3178   -6.1855    4.3775 N   0  0  0  0  0  0
    2.5593   -6.0433    0.3114 N   0  0  0  0  0  0
    2.3463   -7.0561   -0.6371 C   0  0  0  0  0  0
    2.7279   -6.8595   -1.9643 C   0  0  0  0  0  0
    2.5169   -7.8657   -2.9070 C   0  0  0  0  0  0
    1.9243   -9.0685   -2.5226 C   0  0  0  0  0  0
    1.5427   -9.2650   -1.1953 C   0  0  0  0  0  0
    1.7536   -8.2588   -0.2526 C   0  0  0  0  0  0
    0.8089  -10.7465   -0.7152 Cl  0  0  0  0  0  0
    1.7270  -10.0257   -3.4404 F   0  0  0  0  0  0
   -0.2832   -1.2436    6.3008 H   0  0  0  0  0  0
   -0.1464   -3.0330    6.2227 H   0  0  0  0  0  0
   -0.8605   -2.1258    4.8465 H   0  0  0  0  0  0
    2.4507   -4.1469    5.6818 H   0  0  0  0  0  0
    1.5053   -3.8446    1.0083 H   0  0  0  0  0  0
    2.4050   -1.0836    1.5303 H   0  0  0  0  0  0
    1.0959   -1.4254    0.3487 H   0  0  0  0  0  0
    1.3807    1.0254    0.6897 H   0  0  0  0  0  0
   -0.2276    0.4709    1.2664 H   0  0  0  0  0  0
    0.7764    2.0814    2.8175 H   0  0  0  0  0  0
    0.6054    0.4665    3.5853 H   0  0  0  0  0  0
    3.1505    1.9765    1.3452 H   0  0  0  0  0  0
    2.8098    3.0963    2.7078 H   0  0  0  0  0  0
    5.1853    1.1711    2.4931 H   0  0  0  0  0  0
    5.2407    2.9554    2.2943 H   0  0  0  0  0  0
    4.6849    0.2525    4.6147 H   0  0  0  0  0  0
    4.3716    1.3547    5.9980 H   0  0  0  0  0  0
    2.2930    2.1361    4.9306 H   0  0  0  0  0  0
    2.2761    0.3492    5.1127 H   0  0  0  0  0  0
    4.1683   -7.9564    3.8230 H   0  0  0  0  0  0
    3.8146   -8.0034    1.5694 H   0  0  0  0  0  0
    3.1902   -5.9260   -2.2750 H   0  0  0  0  0  0
    2.8153   -7.7126   -3.9399 H   0  0  0  0  0  0
    1.4575   -8.4090    0.7834 H   0  0  0  0  0  0
    2.9757    0.0837    2.8238 H   0  0  0  0  0  0
  1  2  1  0  0  0
  1 32  1  0  0  0
  1 33  1  0  0  0
  1 34  1  0  0  0
  2  3  1  0  0  0
  3  8  1  0  0  0
  3  4  2  0  0  0
  4 35  1  0  0  0
  4  5  1  0  0  0
  5  6  2  0  0  0
  5 22  1  0  0  0
  6 19  1  0  0  0
  6  7  1  0  0  0
  7 36  1  0  0  0
  7  8  2  0  0  0
  8  9  1  0  0  0
  9 10  1  0  0  0
 10 11  1  0  0  0
 10 37  1  0  0  0
 10 38  1  0  0  0
 11 12  1  0  0  0
 11 39  1  0  0  0
 11 40  1  0  0  0
 12 13  1  0  0  0
 12 41  1  0  0  0
 12 42  1  0  0  0
 13 18  1  0  0  0
 13 14  1  0  0  0
 13 56  1  0  0  0
 14 15  1  0  0  0
 14 43  1  0  0  0
 14 44  1  0  0  0
 15 16  1  0  0  0
 15 45  1  0  0  0
 15 46  1  0  0  0
 16 17  1  0  0  0
 17 18  1  0  0  0
 17 47  1  0  0  0
 17 48  1  0  0  0
 18 49  1  0  0  0
 18 50  1  0  0  0
 19 23  2  0  0  0
 19 20  1  0  0  0
 20 21  1  0  0  0
 20 52  1  0  0  0
 21 22  2  0  0  0
 21 51  1  0  0  0
 23 24  1  0  0  0
 24 29  2  0  0  0
 24 25  1  0  0  0
 25 26  2  0  0  0
 25 53  1  0  0  0
 26 27  1  0  0  0
 26 54  1  0  0  0
 27 28  2  0  0  0
 27 31  1  0  0  0
 28 29  1  0  0  0
 28 30  1  0  0  0
 29 55  1  0  0  0
M  CHG  1  13   1
M  END
> <s_m_source_file>
/Users/andrea/Development/mcce-charges/epik_inhibitors/output/Gefitinib/Gefitinib-input.mol2

> <i_m_source_file_index>
1

> <r_lp_tautomer_probability>
9.99989000120999e-06

> <r_epik_Ionization_Penalty>
  5.5308

> <r_epik_Ionization_Penalty_Charging>
  5.5308

> <r_epik_Ionization_Penalty_Neutral>
  0.0000

> <r_epik_State_Penalty>
  8.4654

> <i_epik_Tot_Q>
1

$$$$
~{N}-(3-chloro-4-fluoro-phenyl)-7-methoxy-6-(3-morpholinopropoxy)quinazolin-4-amine
                    3D
 Structure written by MMmdl.
 56 59  0  0  1  0            999 V2000
   -0.0976   -2.1021    5.6386 C   0  0  0  0  0  0
    1.1923   -1.9778    5.0511 O   0  0  0  0  0  0
    1.5760   -2.9690    4.1986 C   0  0  0  0  0  0
    2.2524   -4.0833    4.7037 C   0  0  0  0  0  0
    2.6669   -5.1223    3.8740 C   0  0  0  0  0  0
    2.3820   -5.0193    2.5026 C   0  0  0  0  0  0
    1.7010   -3.9028    1.9872 C   0  0  0  0  0  0
    1.2992   -2.8786    2.8391 C   0  0  0  0  0  0
    0.6360   -1.7934    2.3301 O   0  0  0  0  0  0
    1.3215   -1.0268    1.3488 C   0  0  0  0  0  0
    0.8567    0.4212    1.4449 C   0  0  0  0  0  0
    1.1322    1.0405    2.8088 C   0  0  0  0  0  0
    2.5549    1.0487    3.1428 N   0  3  0  0  0  0
    3.2520    2.1282    2.4299 C   0  0  0  0  0  0
    4.7316    2.1239    2.8034 C   0  0  0  0  0  0
    4.8886    2.2762    4.2146 O   0  0  0  0  0  0
    4.2412    1.2132    4.9150 C   0  0  0  0  0  0
    2.7499    1.1945    4.5921 C   0  0  0  0  0  0
    2.8114   -6.0767    1.7056 C   0  0  0  0  0  0
    3.4650   -7.1554    2.1766 N   0  0  0  0  0  0
    3.6815   -7.1441    3.5016 C   0  0  0  0  0  0
    3.3178   -6.1855    4.3775 N   0  0  0  0  0  0
    2.5593   -6.0433    0.3114 N   0  0  0  0  0  0
    2.4353   -4.9859   -0.6037 C   0  0  0  0  0  0
    1.6116   -5.1241   -1.7209 C   0  0  0  0  0  0
    1.4877   -4.0735   -2.6301 C   0  0  0  0  0  0
    2.1874   -2.8849   -2.4222 C   0  0  0  0  0  0
    3.0111   -2.7469   -1.3048 C   0  0  0  0  0  0
    3.1351   -3.7974   -0.3957 C   0  0  0  0  0  0
    3.8790   -1.2831   -1.0439 Cl  0  0  0  0  0  0
    2.0591   -1.8846   -3.3057 F   0  0  0  0  0  0
   -0.2832   -1.2436    6.3008 H   0  0  0  0  0  0
   -0.1464   -3.0330    6.2227 H   0  0  0  0  0  0
   -0.8605   -2.1258    4.8465 H   0  0  0  0  0  0
    2.4507   -4.1469    5.6818 H   0  0  0  0  0  0
    1.5053   -3.8446    1.0083 H   0  0  0  0  0  0
    2.4050   -1.0836    1.5303 H   0  0  0  0  0  0
    1.0959   -1.4254    0.3487 H   0  0  0  0  0  0
    1.3807    1.0254    0.6897 H   0  0  0  0  0  0
   -0.2276    0.4709    1.2664 H   0  0  0  0  0  0
    0.7764    2.0814    2.8175 H   0  0  0  0  0  0
    0.6054    0.4665    3.5853 H   0  0  0  0  0  0
    3.1505    1.9765    1.3452 H   0  0  0  0  0  0
    2.8098    3.0963    2.7078 H   0  0  0  0  0  0
    5.1853    1.1711    2.4931 H   0  0  0  0  0  0
    5.2407    2.9554    2.2943 H   0  0  0  0  0  0
    4.6849    0.2525    4.6147 H   0  0  0  0  0  0
    4.3716    1.3547    5.9980 H   0  0  0  0  0  0
    2.2930    2.1361    4.9306 H   0  0  0  0  0  0
    2.2761    0.3492    5.1127 H   0  0  0  0  0  0
    4.1683   -7.9564    3.8230 H   0  0  0  0  0  0
    3.8146   -8.0034    1.5694 H   0  0  0  0  0  0
    1.0620   -6.0460   -1.8930 H   0  0  0  0  0  0
    0.8455   -4.1811   -3.4992 H   0  0  0  0  0  0
    3.7764   -3.6929    0.4769 H   0  0  0  0  0  0
    2.9757    0.0837    2.8238 H   0  0  0  0  0  0
  1  2  1  0  0  0
  1 32  1  0  0  0
  1 33  1  0  0  0
  1 34  1  0  0  0
  2  3  1  0  0  0
  3  8  1  0  0  0
  3  4  2  0  0  0
  4 35  1  0  0  0
  4  5  1  0  0  0
  5  6  2  0  0  0
  5 22  1  0  0  0
  6 19  1  0  0  0
  6  7  1  0  0  0
  7 36  1  0  0  0
  7  8  2  0  0  0
  8  9  1  0  0  0
  9 10  1  0  0  0
 10 11  1  0  0  0
 10 37  1  0  0  0
 10 38  1  0  0  0
 11 12  1  0  0  0
 11 39  1  0  0  0
 11 40  1  0  0  0
 12 13  1  0  0  0
 12 41  1  0  0  0
 12 42  1  0  0  0
 13 18  1  0  0  0
 13 14  1  0  0  0
 13 56  1  0  0  0
 14 15  1  0  0  0
 14 43  1  0  0  0
 14 44  1  0  0  0
 15 16  1  0  0  0
 15 45  1  0  0  0
 15 46  1  0  0  0
 16 17  1  0  0  0
 17 18  1  0  0  0
 17 47  1  0  0  0
 17 48  1  0  0  0
 18 49  1  0  0  0
 18 50  1  0  0  0
 19 23  2  0  0  0
 19 20  1  0  0  0
 20 21  1  0  0  0
 20 52  1  0  0  0
 21 22  2  0  0  0
 21 51  1  0  0  0
 23 24  1  0  0  0
 24 29  2  0  0  0
 24 25  1  0  0  0
 25 26  2  0  0  0
 25 53  1  0  0  0
 26 27  1  0  0  0
 26 54  1  0  0  0
 27 28  2  0  0  0
 27 31  1  0  0  0
 28 29  1  0  0  0
 28 30  1  0  0  0
 29 55  1  0  0  0
M  CHG  1  13   1
M  END
> <s_m_source_file>
/Users/andrea/Development/mcce-charges/epik_inhibitors/output/Gefitinib/Gefitinib-input.mol2

> <i_m_source_file_index>
1

> <r_lp_tautomer_probability>
9.99989000120999e-06

> <r_epik_Ionization_Penalty>
  5.5308

> <r_epik_Ionization_Penalty_Charging>
  5.5308

> <r_epik_Ionization_Penalty_Neutral>
  0.0000

> <r_epik_State_Penalty>
  8.4947

> <i_epik_Tot_Q>
1

$$$$
~{N}-(3-chloro-4-fluoro-phenyl)-7-methoxy-6-(3-morpholinopropoxy)quinazolin-4-amine
                    3D
 Structure written by MMmdl.
 55 58  0  0  1  0            999 V2000
   -0.0976   -2.1021    5.6386 C   0  0  0  0  0  0
    1.1923   -1.9778    5.0511 O   0  0  0  0  0  0
    1.5760   -2.9690    4.1986 C   0  0  0  0  0  0
    2.2524   -4.0833    4.7037 C   0  0  0  0  0  0
    2.6669   -5.1223    3.8740 C   0  0  0  0  0  0
    2.3820   -5.0193    2.5026 C   0  0  0  0  0  0
    1.7010   -3.9028    1.9872 C   0  0  0  0  0  0
    1.2992   -2.8786    2.8391 C   0  0  0  0  0  0
    0.6360   -1.7934    2.3301 O   0  0  0  0  0  0
    1.3215   -1.0268    1.3488 C   0  0  0  0  0  0
    0.8567    0.4212    1.4449 C   0  0  0  0  0  0
    1.1322    1.0405    2.8088 C   0  0  0  0  0  0
    2.5549    1.0487    3.1428 N   0  0  0  0  0  0
    3.2520    2.1282    2.4299 C   0  0  0  0  0  0
    4.7316    2.1239    2.8034 C   0  0  0  0  0  0
    4.8886    2.2762    4.2146 O   0  0  0  0  0  0
    4.2412    1.2132    4.9150 C   0  0  0  0  0  0
    2.7499    1.1945    4.5921 C   0  0  0  0  0  0
    2.8114   -6.0767    1.7056 C   0  0  0  0  0  0
    3.4650   -7.1554    2.1766 N   0  0  0  0  0  0
    3.6815   -7.1441    3.5016 C   0  0  0  0  0  0
    3.3178   -6.1855    4.3775 N   0  0  0  0  0  0
    2.5593   -6.0433    0.3114 N   0  0  0  0  0  0
    2.3463   -7.0561   -0.6371 C   0  0  0  0  0  0
    2.7279   -6.8595   -1.9643 C   0  0  0  0  0  0
    2.5169   -7.8657   -2.9070 C   0  0  0  0  0  0
    1.9243   -9.0685   -2.5226 C   0  0  0  0  0  0
    1.5427   -9.2650   -1.1953 C   0  0  0  0  0  0
    1.7536   -8.2588   -0.2526 C   0  0  0  0  0  0
    0.8089  -10.7465   -0.7152 Cl  0  0  0  0  0  0
    1.7270  -10.0257   -3.4404 F   0  0  0  0  0  0
   -0.2832   -1.2436    6.3008 H   0  0  0  0  0  0
   -0.1464   -3.0330    6.2227 H   0  0  0  0  0  0
   -0.8605   -2.1258    4.8465 H   0  0  0  0  0  0
    2.4507   -4.1469    5.6818 H   0  0  0  0  0  0
    1.5053   -3.8446    1.0083 H   0  0  0  0  0  0
    2.4050   -1.0836    1.5303 H   0  0  0  0  0  0
    1.0959   -1.4254    0.3487 H   0  0  0  0  0  0
    1.3807    1.0254    0.6897 H   0  0  0  0  0  0
   -0.2276    0.4709    1.2664 H   0  0  0  0  0  0
    0.7764    2.0814    2.8175 H   0  0  0  0  0  0
    0.6054    0.4665    3.5853 H   0  0  0  0  0  0
    3.1505    1.9765    1.3452 H   0  0  0  0  0  0
    2.8098    3.0963    2.7078 H   0  0  0  0  0  0
    5.1853    1.1711    2.4931 H   0  0  0  0  0  0
    5.2407    2.9554    2.2943 H   0  0  0  0  0  0
    4.6849    0.2525    4.6147 H   0  0  0  0  0  0
    4.3716    1.3547    5.9980 H   0  0  0  0  0  0
    2.2930    2.1361    4.9306 H   0  0  0  0  0  0
    2.2761    0.3492    5.1127 H   0  0  0  0  0  0
    4.1608   -7.9065    3.9364 H   0  0  0  0  0  0
    3.5286   -6.2414    5.4557 H   0  0  0  0  0  0
    3.1902   -5.9260   -2.2750 H   0  0  0  0  0  0
    2.8153   -7.7126   -3.9399 H   0  0  0  0  0  0
    1.4575   -8.4090    0.7834 H   0  0  0  0  0  0
  1  2  1  0  0  0
  1 32  1  0  0  0
  1 33  1  0  0  0
  1 34  1  0  0  0
  2  3  1  0  0  0
  3  8  1  0  0  0
  3  4  2  0  0  0
  4 35  1  0  0  0
  4  5  1  0  0  0
  5  6  2  0  0  0
  5 22  1  0  0  0
  6 19  1  0  0  0
  6  7  1  0  0  0
  7 36  1  0  0  0
  7  8  2  0  0  0
  8  9  1  0  0  0
  9 10  1  0  0  0
 10 11  1  0  0  0
 10 37  1  0  0  0
 10 38  1  0  0  0
 11 12  1  0  0  0
 11 39  1  0  0  0
 11 40  1  0  0  0
 12 13  1  0  0  0
 12 41  1  0  0  0
 12 42  1  0  0  0
 13 18  1  0  0  0
 13 14  1  0  0  0
 14 15  1  0  0  0
 14 43  1  0  0  0
 14 44  1  0  0  0
 15 16  1  0  0  0
 15 45  1  0  0  0
 15 46  1  0  0  0
 16 17  1  0  0  0
 17 18  1  0  0  0
 17 47  1  0  0  0
 17 48  1  0  0  0
 18 49  1  0  0  0
 18 50  1  0  0  0
 19 23  2  0  0  0
 19 20  1  0  0  0
 20 21  2  0  0  0
 21 22  1  0  0  0
 21 51  1  0  0  0
 22 52  1  0  0  0
 23 24  1  0  0  0
 24 29  2  0  0  0
 24 25  1  0  0  0
 25 26  2  0  0  0
 25 53  1  0  0  0
 26 27  1  0  0  0
 26 54  1  0  0  0
 27 28  2  0  0  0
 27 31  1  0  0  0
 28 29  1  0  0  0
 28 30  1  0  0  0
 29 55  1  0  0  0
M  END
> <s_m_source_file>
/Users/andrea/Development/mcce-charges/epik_inhibitors/output/Gefitinib/Gefitinib-input.mol2

> <i_m_source_file_index>
1

> <r_lp_tautomer_probability>
9.99989000120999e-07

> <r_epik_Ionization_Penalty>
  7.9871

> <r_epik_Ionization_Penalty_Charging>
  7.7908

> <r_epik_Ionization_Penalty_Neutral>
  0.1963

> <r_epik_State_Penalty>
  9.4016

> <i_epik_Tot_Q>
0

$$$$
~{N}-(3-chloro-4-fluoro-phenyl)-7-methoxy-6-(3-morpholinopropoxy)quinazolin-4-amine
                    3D
 Structure written by MMmdl.
 55 58  0  0  1  0            999 V2000
   -0.0976   -2.1021    5.6386 C   0  0  0  0  0  0
    1.1923   -1.9778    5.0511 O   0  0  0  0  0  0
    1.5760   -2.9690    4.1986 C   0  0  0  0  0  0
    2.2524   -4.0833    4.7037 C   0  0  0  0  0  0
    2.6669   -5.1223    3.8740 C   0  0  0  0  0  0
    2.3820   -5.0193    2.5026 C   0  0  0  0  0  0
    1.7010   -3.9028    1.9872 C   0  0  0  0  0  0
    1.2992   -2.8786    2.8391 C   0  0  0  0  0  0
    0.6360   -1.7934    2.3301 O   0  0  0  0  0  0
    1.3215   -1.0268    1.3488 C   0  0  0  0  0  0
    0.8567    0.4212    1.4449 C   0  0  0  0  0  0
    1.1322    1.0405    2.8088 C   0  0  0  0  0  0
    2.5549    1.0487    3.1428 N   0  0  0  0  0  0
    3.2520    2.1282    2.4299 C   0  0  0  0  0  0
    4.7316    2.1239    2.8034 C   0  0  0  0  0  0
    4.8886    2.2762    4.2146 O   0  0  0  0  0  0
    4.2412    1.2132    4.9150 C   0  0  0  0  0  0
    2.7499    1.1945    4.5921 C   0  0  0  0  0  0
    2.8114   -6.0767    1.7056 C   0  0  0  0  0  0
    3.4650   -7.1554    2.1766 N   0  0  0  0  0  0
    3.6815   -7.1441    3.5016 C   0  0  0  0  0  0
    3.3178   -6.1855    4.3775 N   0  0  0  0  0  0
    2.5593   -6.0433    0.3114 N   0  0  0  0  0  0
    2.4353   -4.9859   -0.6037 C   0  0  0  0  0  0
    1.6116   -5.1241   -1.7209 C   0  0  0  0  0  0
    1.4877   -4.0735   -2.6301 C   0  0  0  0  0  0
    2.1874   -2.8849   -2.4222 C   0  0  0  0  0  0
    3.0111   -2.7469   -1.3048 C   0  0  0  0  0  0
    3.1351   -3.7974   -0.3957 C   0  0  0  0  0  0
    3.8790   -1.2831   -1.0439 Cl  0  0  0  0  0  0
    2.0591   -1.8846   -3.3057 F   0  0  0  0  0  0
   -0.2832   -1.2436    6.3008 H   0  0  0  0  0  0
   -0.1464   -3.0330    6.2227 H   0  0  0  0  0  0
   -0.8605   -2.1258    4.8465 H   0  0  0  0  0  0
    2.4507   -4.1469    5.6818 H   0  0  0  0  0  0
    1.5053   -3.8446    1.0083 H   0  0  0  0  0  0
    2.4050   -1.0836    1.5303 H   0  0  0  0  0  0
    1.0959   -1.4254    0.3487 H   0  0  0  0  0  0
    1.3807    1.0254    0.6897 H   0  0  0  0  0  0
   -0.2276    0.4709    1.2664 H   0  0  0  0  0  0
    0.7764    2.0814    2.8175 H   0  0  0  0  0  0
    0.6054    0.4665    3.5853 H   0  0  0  0  0  0
    3.1505    1.9765    1.3452 H   0  0  0  0  0  0
    2.8098    3.0963    2.7078 H   0  0  0  0  0  0
    5.1853    1.1711    2.4931 H   0  0  0  0  0  0
    5.2407    2.9554    2.2943 H   0  0  0  0  0  0
    4.6849    0.2525    4.6147 H   0  0  0  0  0  0
    4.3716    1.3547    5.9980 H   0  0  0  0  0  0
    2.2930    2.1361    4.9306 H   0  0  0  0  0  0
    2.2761    0.3492    5.1127 H   0  0  0  0  0  0
    4.1608   -7.9065    3.9364 H   0  0  0  0  0  0
    3.5286   -6.2414    5.4557 H   0  0  0  0  0  0
    1.0620   -6.0460   -1.8930 H   0  0  0  0  0  0
    0.8455   -4.1811   -3.4992 H   0  0  0  0  0  0
    3.7764   -3.6929    0.4769 H   0  0  0  0  0  0
  1  2  1  0  0  0
  1 32  1  0  0  0
  1 33  1  0  0  0
  1 34  1  0  0  0
  2  3  1  0  0  0
  3  8  1  0  0  0
  3  4  2  0  0  0
  4 35  1  0  0  0
  4  5  1  0  0  0
  5  6  2  0  0  0
  5 22  1  0  0  0
  6 19  1  0  0  0
  6  7  1  0  0  0
  7 36  1  0  0  0
  7  8  2  0  0  0
  8  9  1  0  0  0
  9 10  1  0  0  0
 10 11  1  0  0  0
 10 37  1  0  0  0
 10 38  1  0  0  0
 11 12  1  0  0  0
 11 39  1  0  0  0
 11 40  1  0  0  0
 12 13  1  0  0  0
 12 41  1  0  0  0
 12 42  1  0  0  0
 13 18  1  0  0  0
 13 14  1  0  0  0
 14 15  1  0  0  0
 14 43  1  0  0  0
 14 44  1  0  0  0
 15 16  1  0  0  0
 15 45  1  0  0  0
 15 46  1  0  0  0
 16 17  1  0  0  0
 17 18  1  0  0  0
 17 47  1  0  0  0
 17 48  1  0  0  0
 18 49  1  0  0  0
 18 50  1  0  0  0
 19 23  2  0  0  0
 19 20  1  0  0  0
 20 21  2  0  0  0
 21 22  1  0  0  0
 21 51  1  0  0  0
 22 52  1  0  0  0
 23 24  1  0  0  0
 24 29  2  0  0  0
 24 25  1  0  0  0
 25 26  2  0  0  0
 25 53  1  0  0  0
 26 27  1  0  0  0
 26 54  1  0  0  0
 27 28  2  0  0  0
 27 31  1  0  0  0
 28 29  1  0  0  0
 28 30  1  0  0  0
 29 55  1  0  0  0
M  END
> <s_m_source_file>
/Users/andrea/Development/mcce-charges/epik_inhibitors/output/Gefitinib/Gefitinib-input.mol2

> <i_m_source_file_index>
1

> <r_lp_tautomer_probability>
9.99989000120999e-07

> <r_epik_Ionization_Penalty>
  7.9871

> <r_epik_Ionization_Penalty_Charging>
  7.7908

> <r_epik_Ionization_Penalty_Neutral>
  0.1963

> <r_epik_State_Penalty>
  9.4016

> <i_epik_Tot_Q>
0

$$$$
~{N}-(3-chloro-4-fluoro-phenyl)-7-methoxy-6-(3-morpholinopropoxy)quinazolin-4-amine
                    3D
 Structure written by MMmdl.
 56 59  0  0  1  0            999 V2000
   -0.0976   -2.1021    5.6386 C   0  0  0  0  0  0
    1.1923   -1.9778    5.0511 O   0  0  0  0  0  0
    1.5760   -2.9690    4.1986 C   0  0  0  0  0  0
    2.2524   -4.0833    4.7037 C   0  0  0  0  0  0
    2.6669   -5.1223    3.8740 C   0  0  0  0  0  0
    2.3820   -5.0193    2.5026 C   0  0  0  0  0  0
    1.7010   -3.9028    1.9872 C   0  0  0  0  0  0
    1.2992   -2.8786    2.8391 C   0  0  0  0  0  0
    0.6360   -1.7934    2.3301 O   0  0  0  0  0  0
    1.3215   -1.0268    1.3488 C   0  0  0  0  0  0
    0.8567    0.4212    1.4449 C   0  0  0  0  0  0
    1.1322    1.0405    2.8088 C   0  0  0  0  0  0
    2.5549    1.0487    3.1428 N   0  3  0  0  0  0
    3.2520    2.1282    2.4299 C   0  0  0  0  0  0
    4.7316    2.1239    2.8034 C   0  0  0  0  0  0
    4.8886    2.2762    4.2146 O   0  0  0  0  0  0
    4.2412    1.2132    4.9150 C   0  0  0  0  0  0
    2.7499    1.1945    4.5921 C   0  0  0  0  0  0
    2.8114   -6.0767    1.7056 C   0  0  0  0  0  0
    3.4650   -7.1554    2.1766 N   0  0  0  0  0  0
    3.6815   -7.1441    3.5016 C   0  0  0  0  0  0
    3.3178   -6.1855    4.3775 N   0  0  0  0  0  0
    2.5593   -6.0433    0.3114 N   0  0  0  0  0  0
    2.3463   -7.0561   -0.6371 C   0  0  0  0  0  0
    2.7279   -6.8595   -1.9643 C   0  0  0  0  0  0
    2.5169   -7.8657   -2.9070 C   0  0  0  0  0  0
    1.9243   -9.0685   -2.5226 C   0  0  0  0  0  0
    1.5427   -9.2650   -1.1953 C   0  0  0  0  0  0
    1.7536   -8.2588   -0.2526 C   0  0  0  0  0  0
    0.8089  -10.7465   -0.7152 Cl  0  0  0  0  0  0
    1.7270  -10.0257   -3.4404 F   0  0  0  0  0  0
   -0.2832   -1.2436    6.3008 H   0  0  0  0  0  0
   -0.1464   -3.0330    6.2227 H   0  0  0  0  0  0
   -0.8605   -2.1258    4.8465 H   0  0  0  0  0  0
    2.4507   -4.1469    5.6818 H   0  0  0  0  0  0
    1.5053   -3.8446    1.0083 H   0  0  0  0  0  0
    2.4050   -1.0836    1.5303 H   0  0  0  0  0  0
    1.0959   -1.4254    0.3487 H   0  0  0  0  0  0
    1.3807    1.0254    0.6897 H   0  0  0  0  0  0
   -0.2276    0.4709    1.2664 H   0  0  0  0  0  0
    0.7764    2.0814    2.8175 H   0  0  0  0  0  0
    0.6054    0.4665    3.5853 H   0  0  0  0  0  0
    3.1505    1.9765    1.3452 H   0  0  0  0  0  0
    2.8098    3.0963    2.7078 H   0  0  0  0  0  0
    5.1853    1.1711    2.4931 H   0  0  0  0  0  0
    5.2407    2.9554    2.2943 H   0  0  0  0  0  0
    4.6849    0.2525    4.6147 H   0  0  0  0  0  0
    4.3716    1.3547    5.9980 H   0  0  0  0  0  0
    2.2930    2.1361    4.9306 H   0  0  0  0  0  0
    2.2761    0.3492    5.1127 H   0  0  0  0  0  0
    4.1608   -7.9065    3.9364 H   0  0  0  0  0  0
    3.5286   -6.2414    5.4557 H   0  0  0  0  0  0
    3.1902   -5.9260   -2.2750 H   0  0  0  0  0  0
    2.8153   -7.7126   -3.9399 H   0  0  0  0  0  0
    1.4575   -8.4090    0.7834 H   0  0  0  0  0  0
    2.9757    0.0837    2.8238 H   0  0  0  0  0  0
  1  2  1  0  0  0
  1 32  1  0  0  0
  1 33  1  0  0  0
  1 34  1  0  0  0
  2  3  1  0  0  0
  3  8  1  0  0  0
  3  4  2  0  0  0
  4 35  1  0  0  0
  4  5  1  0  0  0
  5  6  2  0  0  0
  5 22  1  0  0  0
  6 19  1  0  0  0
  6  7  1  0  0  0
  7 36  1  0  0  0
  7  8  2  0  0  0
  8  9  1  0  0  0
  9 10  1  0  0  0
 10 11  1  0  0  0
 10 37  1  0  0  0
 10 38  1  0  0  0
 11 12  1  0  0  0
 11 39  1  0  0  0
 11 40  1  0  0  0
 12 13  1  0  0  0
 12 41  1  0  0  0
 12 42  1  0  0  0
 13 18  1  0  0  0
 13 14  1  0  0  0
 13 56  1  0  0  0
 14 15  1  0  0  0
 14 43  1  0  0  0
 14 44  1  0  0  0
 15 16  1  0  0  0
 15 45  1  0  0  0
 15 46  1  0  0  0
 16 17  1  0  0  0
 17 18  1  0  0  0
 17 47  1  0  0  0
 17 48  1  0  0  0
 18 49  1  0  0  0
 18 50  1  0  0  0
 19 23  2  0  0  0
 19 20  1  0  0  0
 20 21  2  0  0  0
 21 22  1  0  0  0
 21 51  1  0  0  0
 22 52  1  0  0  0
 23 24  1  0  0  0
 24 29  2  0  0  0
 24 25  1  0  0  0
 25 26  2  0  0  0
 25 53  1  0  0  0
 26 27  1  0  0  0
 26 54  1  0  0  0
 27 28  2  0  0  0
 27 31  1  0  0  0
 28 29  1  0  0  0
 28 30  1  0  0  0
 29 55  1  0  0  0
M  CHG  1  13   1
M  END
> <s_m_source_file>
/Users/andrea/Development/mcce-charges/epik_inhibitors/output/Gefitinib/Gefitinib-input.mol2

> <i_m_source_file_index>
1

> <r_lp_tautomer_probability>
9.99989000120999e-07

> <r_epik_Ionization_Penalty>
  8.5639

> <r_epik_Ionization_Penalty_Charging>
  8.5639

> <r_epik_Ionization_Penalty_Neutral>
  0.0000

> <r_epik_State_Penalty>
  9.9924

> <i_epik_Tot_Q>
1

$$$$
~{N}-(3-chloro-4-fluoro-phenyl)-7-methoxy-6-(3-morpholinopropoxy)quinazolin-4-amine
                    3D
 Structure written by MMmdl.
 56 59  0  0  1  0            999 V2000
   -0.0976   -2.1021    5.6386 C   0  0  0  0  0  0
    1.1923   -1.9778    5.0511 O   0  0  0  0  0  0
    1.5760   -2.9690    4.1986 C   0  0  0  0  0  0
    2.2524   -4.0833    4.7037 C   0  0  0  0  0  0
    2.6669   -5.1223    3.8740 C   0  0  0  0  0  0
    2.3820   -5.0193    2.5026 C   0  0  0  0  0  0
    1.7010   -3.9028    1.9872 C   0  0  0  0  0  0
    1.2992   -2.8786    2.8391 C   0  0  0  0  0  0
    0.6360   -1.7934    2.3301 O   0  0  0  0  0  0
    1.3215   -1.0268    1.3488 C   0  0  0  0  0  0
    0.8567    0.4212    1.4449 C   0  0  0  0  0  0
    1.1322    1.0405    2.8088 C   0  0  0  0  0  0
    2.5549    1.0487    3.1428 N   0  3  0  0  0  0
    3.2520    2.1282    2.4299 C   0  0  0  0  0  0
    4.7316    2.1239    2.8034 C   0  0  0  0  0  0
    4.8886    2.2762    4.2146 O   0  0  0  0  0  0
    4.2412    1.2132    4.9150 C   0  0  0  0  0  0
    2.7499    1.1945    4.5921 C   0  0  0  0  0  0
    2.8114   -6.0767    1.7056 C   0  0  0  0  0  0
    3.4650   -7.1554    2.1766 N   0  0  0  0  0  0
    3.6815   -7.1441    3.5016 C   0  0  0  0  0  0
    3.3178   -6.1855    4.3775 N   0  0  0  0  0  0
    2.5593   -6.0433    0.3114 N   0  0  0  0  0  0
    2.4353   -4.9859   -0.6037 C   0  0  0  0  0  0
    1.6116   -5.1241   -1.7209 C   0  0  0  0  0  0
    1.4877   -4.0735   -2.6301 C   0  0  0  0  0  0
    2.1874   -2.8849   -2.4222 C   0  0  0  0  0  0
    3.0111   -2.7469   -1.3048 C   0  0  0  0  0  0
    3.1351   -3.7974   -0.3957 C   0  0  0  0  0  0
    3.8790   -1.2831   -1.0439 Cl  0  0  0  0  0  0
    2.0591   -1.8846   -3.3057 F   0  0  0  0  0  0
   -0.2832   -1.2436    6.3008 H   0  0  0  0  0  0
   -0.1464   -3.0330    6.2227 H   0  0  0  0  0  0
   -0.8605   -2.1258    4.8465 H   0  0  0  0  0  0
    2.4507   -4.1469    5.6818 H   0  0  0  0  0  0
    1.5053   -3.8446    1.0083 H   0  0  0  0  0  0
    2.4050   -1.0836    1.5303 H   0  0  0  0  0  0
    1.0959   -1.4254    0.3487 H   0  0  0  0  0  0
    1.3807    1.0254    0.6897 H   0  0  0  0  0  0
   -0.2276    0.4709    1.2664 H   0  0  0  0  0  0
    0.7764    2.0814    2.8175 H   0  0  0  0  0  0
    0.6054    0.4665    3.5853 H   0  0  0  0  0  0
    3.1505    1.9765    1.3452 H   0  0  0  0  0  0
    2.8098    3.0963    2.7078 H   0  0  0  0  0  0
    5.1853    1.1711    2.4931 H   0  0  0  0  0  0
    5.2407    2.9554    2.2943 H   0  0  0  0  0  0
    4.6849    0.2525    4.6147 H   0  0  0  0  0  0
    4.3716    1.3547    5.9980 H   0  0  0  0  0  0
    2.2930    2.1361    4.9306 H   0  0  0  0  0  0
    2.2761    0.3492    5.1127 H   0  0  0  0  0  0
    4.1608   -7.9065    3.9364 H   0  0  0  0  0  0
    3.5286   -6.2414    5.4557 H   0  0  0  0  0  0
    1.0620   -6.0460   -1.8930 H   0  0  0  0  0  0
    0.8455   -4.1811   -3.4992 H   0  0  0  0  0  0
    3.7764   -3.6929    0.4769 H   0  0  0  0  0  0
    2.9757    0.0837    2.8238 H   0  0  0  0  0  0
  1  2  1  0  0  0
  1 32  1  0  0  0
  1 33  1  0  0  0
  1 34  1  0  0  0
  2  3  1  0  0  0
  3  8  1  0  0  0
  3  4  2  0  0  0
  4 35  1  0  0  0
  4  5  1  0  0  0
  5  6  2  0  0  0
  5 22  1  0  0  0
  6 19  1  0  0  0
  6  7  1  0  0  0
  7 36  1  0  0  0
  7  8  2  0  0  0
  8  9  1  0  0  0
  9 10  1  0  0  0
 10 11  1  0  0  0
 10 37  1  0  0  0
 10 38  1  0  0  0
 11 12  1  0  0  0
 11 39  1  0  0  0
 11 40  1  0  0  0
 12 13  1  0  0  0
 12 41  1  0  0  0
 12 42  1  0  0  0
 13 18  1  0  0  0
 13 14  1  0  0  0
 13 56  1  0  0  0
 14 15  1  0  0  0
 14 43  1  0  0  0
 14 44  1  0  0  0
 15 16  1  0  0  0
 15 45  1  0  0  0
 15 46  1  0  0  0
 16 17  1  0  0  0
 17 18  1  0  0  0
 17 47  1  0  0  0
 17 48  1  0  0  0
 18 49  1  0  0  0
 18 50  1  0  0  0
 19 23  2  0  0  0
 19 20  1  0  0  0
 20 21  2  0  0  0
 21 22  1  0  0  0
 21 51  1  0  0  0
 22 52  1  0  0  0
 23 24  1  0  0  0
 24 29  2  0  0  0
 24 25  1  0  0  0
 25 26  2  0  0  0
 25 53  1  0  0  0
 26 27  1  0  0  0
 26 54  1  0  0  0
 27 28  2  0  0  0
 27 31  1  0  0  0
 28 29  1  0  0  0
 28 30  1  0  0  0
 29 55  1  0  0  0
M  CHG  1  13   1
M  END
> <s_m_source_file>
/Users/andrea/Development/mcce-charges/epik_inhibitors/output/Gefitinib/Gefitinib-input.mol2

> <i_m_source_file_index>
1

> <r_lp_tautomer_probability>
9.99989000120999e-07

> <r_epik_Ionization_Penalty>
  8.5639

> <r_epik_Ionization_Penalty_Charging>
  8.5639

> <r_epik_Ionization_Penalty_Neutral>
  0.0000

> <r_epik_State_Penalty>
  9.9998

> <i_epik_Tot_Q>
1

$$$$
