@<TRIPOS>MOLECULE
~{N}-(3-chloro-4-fluoro-phenyl)-7-methoxy-6-(3-morpholinopropoxy)quinazolin-4-amine
   55    58     0     0     0
SMALL
USER_CHARGES

@<TRIPOS>ATOM
      1 C1         -0.1002   -2.1051    5.6392 C.3       1 GEF         0.1187
      2 O1          1.1895   -1.9793    5.0516 O.3       1 GEF        -0.3505
      3 C2          1.5743   -2.9699    4.1989 C.ar      1 GEF         0.0940
      4 C3          2.2530   -4.0830    4.7036 C.ar      1 GEF        -0.1809
      5 C4          2.6675   -5.1220    3.8739 C.ar      1 GEF         0.4322
      6 C5          2.3820   -5.0193    2.5026 C.ar      1 GEF        -0.2834
      7 C6          1.7000   -3.9033    1.9874 C.ar      1 GEF        -0.1138
      8 C7          1.2972   -2.8797    2.8394 C.ar      1 GEF         0.0893
      9 O2          0.6330   -1.7950    2.3306 O.3       1 GEF        -0.3430
     10 C8          1.3179   -1.0276    1.3495 C.3       1 GEF         0.1306
     11 C9          0.8517    0.4200    1.4459 C.3       1 GEF        -0.0912
     12 C10         1.1265    1.0393    2.8099 C.3       1 GEF         0.1805
     13 N1          2.5492    1.0487    3.1440 N.3       1 GEF        -0.7379
     14 C11         3.2453    2.1290    2.4314 C.3       1 GEF         0.1382
     15 C12         4.7249    2.1260    2.8050 C.3       1 GEF         0.1276
     16 O3          4.8817    2.2782    4.2162 O.3       1 GEF        -0.4166
     17 C13         4.2352    1.2145    4.9163 C.3       1 GEF         0.1276
     18 C14         2.7439    1.1944    4.5933 C.3       1 GEF         0.1382
     19 C15         2.8117   -6.0765    1.7055 C.ar      1 GEF         0.6900
     20 N2          3.4661   -7.1548    2.1764 N.ar      1 GEF        -0.7528
     21 C16         3.6829   -7.1434    3.5014 C.ar      1 GEF         0.6679
     22 N3          3.3190   -6.1849    4.3773 N.ar      1 GEF        -0.7034
     23 N4          2.5593   -6.0433    0.3114 N.pl3     1 GEF        -0.7126
     24 C17         2.3463   -7.0562   -0.6370 C.ar      1 GEF         0.1116
     25 C18         2.7276   -6.8596   -1.9643 C.ar      1 GEF        -0.0771
     26 C19         2.5166   -7.8660   -2.9068 C.ar      1 GEF        -0.1517
     27 C20         1.9243   -9.0688   -2.5222 C.ar      1 GEF         0.1292
     28 C21         1.5430   -9.2653   -1.1948 C.ar      1 GEF        -0.0094
     29 C22         1.7539   -8.2590   -0.2523 C.ar      1 GEF        -0.1425
     30 Cl1         0.8095  -10.7469   -0.7144 Cl        1 GEF        -0.0649
     31 F1          1.7269  -10.0261   -3.4399 F         1 GEF        -0.1228
     32 H1         -0.2862   -1.2529    6.2974 H         1 GEF         0.0462
     33 H2         -0.1531   -3.0368    6.2080 H         1 GEF         0.0462
     34 H3         -0.8519   -2.1213    4.8465 H         1 GEF         0.0462
     35 H4          2.4609   -4.1359    5.7713 H         1 GEF         0.1701
     36 H5          1.4750   -3.8159    0.9270 H         1 GEF         0.1457
     37 H6          1.0969   -1.4511    0.3649 H         1 GEF         0.0503
     38 H7          2.3936   -1.1040    1.5376 H         1 GEF         0.0503
     39 H8         -0.2252    0.4609    1.2400 H         1 GEF         0.0612
     40 H9          1.3308    1.0095    0.6539 H         1 GEF         0.0612
     41 H10         0.7884    2.0800    2.8255 H         1 GEF         0.0338
     42 H11         0.6004    0.4966    3.6017 H         1 GEF         0.0338
     43 H12         3.1524    1.9917    1.3480 H         1 GEF         0.0399
     44 H13         2.8054    3.1009    2.6906 H         1 GEF         0.0399
     45 H14         5.2238    1.2051    2.4786 H         1 GEF         0.0538
     46 H15         5.2333    2.9663    2.3216 H         1 GEF         0.0538
     47 H16         4.7166    0.2625    4.6616 H         1 GEF         0.0538
     48 H17         4.3813    1.3836    5.9880 H         1 GEF         0.0538
     49 H18         2.2753    0.3587    5.1255 H         1 GEF         0.0399
     50 H19         2.2819    2.1253    4.9470 H         1 GEF         0.0399
     51 H20         4.2073   -7.9970    3.9134 H         1 GEF         0.0565
     52 H21         2.5288   -5.1041   -0.0671 H         1 GEF         0.4234
     53 H22         3.1897   -5.9261   -2.2751 H         1 GEF         0.1698
     54 H23         2.8147   -7.7129   -3.9398 H         1 GEF         0.1583
     55 H24         1.4580   -8.4091    0.7838 H         1 GEF         0.1508
@<TRIPOS>BOND
     1    1    2 1
     2    2    3 1
     3    3    8 ar
     4    3    4 ar
     5    4    5 ar
     6    5   22 ar
     7    5    6 ar
     8    6    7 ar
     9    7    8 ar
    10    8    9 1
    11    9   10 1
    12   10   11 1
    13   11   12 1
    14   12   13 1
    15   13   18 1
    16   13   14 1
    17   14   15 1
    18   15   16 1
    19   16   17 1
    20   17   18 1
    21    6   19 ar
    22   19   20 ar
    23   20   21 ar
    24   21   22 ar
    25   19   23 1
    26   23   24 1
    27   24   29 ar
    28   24   25 ar
    29   25   26 ar
    30   26   27 ar
    31   27   28 ar
    32   28   29 ar
    33   28   30 1
    34   27   31 1
    35    1   32 1
    36    1   33 1
    37    1   34 1
    38    4   35 1
    39    7   36 1
    40   10   37 1
    41   10   38 1
    42   11   39 1
    43   11   40 1
    44   12   41 1
    45   12   42 1
    46   14   43 1
    47   14   44 1
    48   15   45 1
    49   15   46 1
    50   17   47 1
    51   17   48 1
    52   18   49 1
    53   18   50 1
    54   21   51 1
    55   23   52 1
    56   25   53 1
    57   26   54 1
    58   29   55 1
