@<TRIPOS>MOLECULE
IRE
   55    58     0     0     0
SMALL
NO_CHARGES

@<TRIPOS>ATOM
      1 C1        -45.4800   -2.7160  -15.7450 C.3       1 GEF         0.0000
      2 C2        -44.4060   -3.5920  -15.0750 C.3       1 GEF         0.0000
      3 O1        -43.4570   -4.0220  -16.1080 O.3       1 GEF         0.0000
      4 C3        -44.0750   -4.8660  -17.1340 C.3       1 GEF         0.0000
      5 C4        -45.2550   -4.1730  -17.8460 C.3       1 GEF         0.0000
      6 N1        -46.1310   -3.3930  -16.9140 N.3       1 GEF         0.0000
      7 C5        -46.7510   -2.3190  -17.7170 C.3       1 GEF         0.0000
      8 C6        -48.2760   -2.4690  -17.8210 C.3       1 GEF         0.0000
      9 C7        -48.8310   -1.4830  -18.8750 C.3       1 GEF         0.0000
     10 O2        -49.1940   -0.1540  -18.3610 O.3       1 GEF         0.0000
     11 C8        -50.2350    0.4780  -19.0000 C.ar      1 GEF         0.0000
     12 C9        -51.1310    1.2010  -18.2160 C.ar      1 GEF         0.0000
     13 C10       -52.1950    1.8590  -18.8390 C.ar      1 GEF         0.0000
     14 O3        -50.9480    1.2280  -16.8510 O.3       1 GEF         0.0000
     15 C11       -51.1650    2.4870  -16.1950 C.3       1 GEF         0.0000
     16 C12       -50.3990    0.4370  -20.3940 C.ar      1 GEF         0.0000
     17 C13       -51.4580    1.1010  -21.0030 C.ar      1 GEF         0.0000
     18 C14       -52.3520    1.8070  -20.2220 C.ar      1 GEF         0.0000
     19 N2        -53.3700    2.4460  -20.8190 N.pl3     1 GEF         0.0000
     20 C15       -53.5590    2.4110  -22.1310 C.2       1 GEF         0.0000
     21 N3        -52.7310    1.7450  -22.9050 N.2       1 GEF         0.0000
     22 C16       -51.6810    1.0850  -22.3780 C.2       1 GEF         0.0000
     23 N4        -50.8760    0.4060  -23.1830 N.2       1 GEF         0.0000
     24 C17       -50.9780    0.4720  -24.5090 C.ar      1 GEF         0.0000
     25 C18       -50.9250    1.7140  -25.1330 C.ar      1 GEF         0.0000
     26 C19       -51.0070    1.8060  -26.5120 C.ar      1 GEF         0.0000
     27 Cl1       -50.9430    3.3600  -27.2400 Cl        1 GEF         0.0000
     28 C20       -51.1410    0.6670  -27.2930 C.ar      1 GEF         0.0000
     29 F1        -51.2180    0.7930  -28.6340 F         1 GEF         0.0000
     30 C21       -51.1890   -0.5850  -26.6740 C.ar      1 GEF         0.0000
     31 C22       -51.1030   -0.6820  -25.2800 C.ar      1 GEF         0.0000
     32 H1        -46.2610   -2.5150  -14.9970 H         1 GEF         0.0000
     33 H2        -45.0020   -1.7910  -16.1010 H         1 GEF         0.0000
     34 H3        -44.8720   -4.4670  -14.5990 H         1 GEF         0.0000
     35 H4        -43.8800   -3.0140  -14.3010 H         1 GEF         0.0000
     36 H5        -44.4680   -5.7640  -16.6350 H         1 GEF         0.0000
     37 H6        -43.3120   -5.1120  -17.8870 H         1 GEF         0.0000
     38 H7        -45.8750   -4.9610  -18.2980 H         1 GEF         0.0000
     39 H8        -44.8460   -3.4790  -18.5950 H         1 GEF         0.0000
     40 H9        -46.3370   -2.3780  -18.7340 H         1 GEF         0.0000
     41 H10       -46.5270   -1.3530  -17.2400 H         1 GEF         0.0000
     42 H11       -48.7290   -2.2480  -16.8440 H         1 GEF         0.0000
     43 H12       -48.5210   -3.4990  -18.1210 H         1 GEF         0.0000
     44 H13       -49.7610   -1.9300  -19.2560 H         1 GEF         0.0000
     45 H14       -48.0540   -1.3420  -19.6400 H         1 GEF         0.0000
     46 H15       -52.9030    2.4140  -18.2420 H         1 GEF         0.0000
     47 H16       -52.1080    2.9270  -16.5500 H         1 GEF         0.0000
     48 H17       -50.3320    3.1680  -16.4250 H         1 GEF         0.0000
     49 H18       -51.2200    2.3300  -15.1080 H         1 GEF         0.0000
     50 H19       -49.6960   -0.1160  -20.9990 H         1 GEF         0.0000
     51 H20       -54.0090    2.9680  -20.2540 H         1 GEF         0.0000
     52 H21       -54.3980    2.9330  -22.5660 H         1 GEF         0.0000
     53 H22       -50.8190    2.6100  -24.5390 H         1 GEF         0.0000
     54 H23       -51.2930   -1.4790  -27.2720 H         1 GEF         0.0000
     55 H24       -51.1340   -1.6500  -24.8030 H         1 GEF         0.0000
@<TRIPOS>BOND
     1    1    2 1
     2    1    6 1
     3    1   32 1
     4    1   33 1
     5    2    3 1
     6    2   34 1
     7    2   35 1
     8    3    4 1
     9    4    5 1
    10    4   36 1
    11    4   37 1
    12    5    6 1
    13    5   38 1
    14    5   39 1
    15    6    7 1
    16    7    8 1
    17    7   40 1
    18    7   41 1
    19    8    9 1
    20    8   42 1
    21    8   43 1
    22    9   10 1
    23    9   44 1
    24    9   45 1
    25   10   11 1
    26   11   12 ar
    27   11   16 ar
    28   12   13 ar
    29   12   14 1
    30   13   18 ar
    31   13   46 1
    32   14   15 1
    33   15   47 1
    34   15   48 1
    35   15   49 1
    36   16   17 ar
    37   16   50 1
    38   17   18 ar
    39   17   22 1
    40   18   19 1
    41   19   20 1
    42   19   51 1
    43   20   21 2
    44   20   52 1
    45   21   22 1
    46   22   23 2
    47   23   24 1
    48   24   25 ar
    49   24   31 ar
    50   25   26 ar
    51   25   53 1
    52   26   27 1
    53   26   28 ar
    54   28   29 1
    55   28   30 ar
    56   30   31 ar
    57   30   54 1
    58   31   55 1
