~{N}-(3-chloro-4-fluoro-phenyl)-7-methoxy-6-(3-morpholinopropoxy)quinazolin-4-amine
                    3D
 Structure written by MMmdl.
 55 58  0  0  1  0            999 V2000
   -0.1002   -2.1051    5.6392 C   0  0  0  0  0  0
    1.1895   -1.9793    5.0516 O   0  0  0  0  0  0
    1.5743   -2.9699    4.1989 C   0  0  0  0  0  0
    2.2530   -4.0830    4.7036 C   0  0  0  0  0  0
    2.6675   -5.1220    3.8739 C   0  0  0  0  0  0
    2.3820   -5.0193    2.5026 C   0  0  0  0  0  0
    1.7000   -3.9033    1.9874 C   0  0  0  0  0  0
    1.2972   -2.8797    2.8394 C   0  0  0  0  0  0
    0.6330   -1.7950    2.3306 O   0  0  0  0  0  0
    1.3179   -1.0276    1.3495 C   0  0  0  0  0  0
    0.8517    0.4200    1.4459 C   0  0  0  0  0  0
    1.1265    1.0393    2.8099 C   0  0  0  0  0  0
    2.5492    1.0487    3.1440 N   0  0  0  0  0  0
    3.2453    2.1290    2.4314 C   0  0  0  0  0  0
    4.7249    2.1260    2.8050 C   0  0  0  0  0  0
    4.8817    2.2782    4.2162 O   0  0  0  0  0  0
    4.2352    1.2145    4.9163 C   0  0  0  0  0  0
    2.7439    1.1944    4.5933 C   0  0  0  0  0  0
    2.8117   -6.0765    1.7055 C   0  0  0  0  0  0
    3.4661   -7.1548    2.1764 N   0  0  0  0  0  0
    3.6829   -7.1434    3.5014 C   0  0  0  0  0  0
    3.3190   -6.1849    4.3773 N   0  0  0  0  0  0
    2.5593   -6.0433    0.3114 N   0  0  0  0  0  0
    2.3463   -7.0562   -0.6370 C   0  0  0  0  0  0
    2.7276   -6.8596   -1.9643 C   0  0  0  0  0  0
    2.5166   -7.8660   -2.9068 C   0  0  0  0  0  0
    1.9243   -9.0688   -2.5222 C   0  0  0  0  0  0
    1.5430   -9.2653   -1.1948 C   0  0  0  0  0  0
    1.7539   -8.2590   -0.2523 C   0  0  0  0  0  0
    0.8095  -10.7469   -0.7144 Cl  0  0  0  0  0  0
    1.7269  -10.0261   -3.4399 F   0  0  0  0  0  0
   -0.2866   -1.2469    6.3016 H   0  0  0  0  0  0
   -0.1478   -3.0361    6.2231 H   0  0  0  0  0  0
   -0.8632   -2.1296    4.8472 H   0  0  0  0  0  0
    2.4609   -4.1359    5.7713 H   0  0  0  0  0  0
    1.4750   -3.8159    0.9270 H   0  0  0  0  0  0
    2.4014   -1.0834    1.5310 H   0  0  0  0  0  0
    1.0927   -1.4262    0.3493 H   0  0  0  0  0  0
    1.3752    1.0248    0.6908 H   0  0  0  0  0  0
   -0.2326    0.4687    1.2673 H   0  0  0  0  0  0
    0.7698    2.0798    2.8187 H   0  0  0  0  0  0
    0.6002    0.4646    3.5863 H   0  0  0  0  0  0
    3.1440    1.9774    1.3466 H   0  0  0  0  0  0
    2.8022    3.0967    2.7094 H   0  0  0  0  0  0
    5.1795    1.1737    2.4945 H   0  0  0  0  0  0
    5.2333    2.9582    2.2960 H   0  0  0  0  0  0
    4.6798    0.2543    4.6159 H   0  0  0  0  0  0
    4.3653    1.3559    5.9994 H   0  0  0  0  0  0
    2.2862    2.1356    4.9319 H   0  0  0  0  0  0
    2.2709    0.3486    5.1137 H   0  0  0  0  0  0
    4.2073   -7.9970    3.9134 H   0  0  0  0  0  0
    2.5021   -5.0788   -0.2144 H   0  0  0  0  0  0
    3.1897   -5.9261   -2.2751 H   0  0  0  0  0  0
    2.8147   -7.7129   -3.9398 H   0  0  0  0  0  0
    1.4580   -8.4091    0.7838 H   0  0  0  0  0  0
  1  2  1  0  0  0
  1 32  1  0  0  0
  1 33  1  0  0  0
  1 34  1  0  0  0
  2  3  1  0  0  0
  3  8  2  0  0  0
  3  4  1  0  0  0
  4  5  2  0  0  0
  4 35  1  0  0  0
  5 22  1  0  0  0
  5  6  1  0  0  0
  6  7  2  0  0  0
  6 19  1  0  0  0
  7  8  1  0  0  0
  7 36  1  0  0  0
  8  9  1  0  0  0
  9 10  1  0  0  0
 10 11  1  0  0  0
 10 37  1  0  0  0
 10 38  1  0  0  0
 11 12  1  0  0  0
 11 39  1  0  0  0
 11 40  1  0  0  0
 12 13  1  0  0  0
 12 41  1  0  0  0
 12 42  1  0  0  0
 13 18  1  0  0  0
 13 14  1  0  0  0
 14 15  1  0  0  0
 14 43  1  0  0  0
 14 44  1  0  0  0
 15 16  1  0  0  0
 15 45  1  0  0  0
 15 46  1  0  0  0
 16 17  1  0  0  0
 17 18  1  0  0  0
 17 47  1  0  0  0
 17 48  1  0  0  0
 18 49  1  0  0  0
 18 50  1  0  0  0
 19 20  2  0  0  0
 19 23  1  0  0  0
 20 21  1  0  0  0
 21 22  2  0  0  0
 21 51  1  0  0  0
 23 24  1  0  0  0
 23 52  1  0  0  0
 24 29  2  0  0  0
 24 25  1  0  0  0
 25 26  2  0  0  0
 25 53  1  0  0  0
 26 27  1  0  0  0
 26 54  1  0  0  0
 27 28  2  0  0  0
 27 31  1  0  0  0
 28 29  1  0  0  0
 28 30  1  0  0  0
 29 55  1  0  0  0
M  END
> <s_m_source_file>
/Users/choderaj/github/choderalab/mcce-charges/mcce-charges.jchodera/epik_inhibitors/output/Gefitinib/Gefitinib-input.mol2

> <i_m_source_file_index>
1

> <r_lp_tautomer_probability>
0.999978000241998

> <r_epik_Ionization_Penalty>
  0.1966

> <r_epik_Ionization_Penalty_Charging>
  0.0000

> <r_epik_Ionization_Penalty_Neutral>
  0.1966

> <r_epik_State_Penalty>
  0.1901

> <i_epik_Tot_Q>
0

$$$$
~{N}-(3-chloro-4-fluoro-phenyl)-7-methoxy-6-(3-morpholinopropoxy)quinazolin-4-amine
                    3D
 Structure written by MMmdl.
 56 59  0  0  1  0            999 V2000
   -0.1002   -2.1051    5.6392 C   0  0  0  0  0  0
    1.1895   -1.9793    5.0516 O   0  0  0  0  0  0
    1.5743   -2.9699    4.1989 C   0  0  0  0  0  0
    2.2530   -4.0830    4.7036 C   0  0  0  0  0  0
    2.6675   -5.1220    3.8739 C   0  0  0  0  0  0
    2.3820   -5.0193    2.5026 C   0  0  0  0  0  0
    1.7000   -3.9033    1.9874 C   0  0  0  0  0  0
    1.2972   -2.8797    2.8394 C   0  0  0  0  0  0
    0.6330   -1.7950    2.3306 O   0  0  0  0  0  0
    1.3179   -1.0276    1.3495 C   0  0  0  0  0  0
    0.8517    0.4200    1.4459 C   0  0  0  0  0  0
    1.1265    1.0393    2.8099 C   0  0  0  0  0  0
    2.5492    1.0487    3.1440 N   0  3  0  0  0  0
    3.2453    2.1290    2.4314 C   0  0  0  0  0  0
    4.7249    2.1260    2.8050 C   0  0  0  0  0  0
    4.8817    2.2782    4.2162 O   0  0  0  0  0  0
    4.2352    1.2145    4.9163 C   0  0  0  0  0  0
    2.7439    1.1944    4.5933 C   0  0  0  0  0  0
    2.8117   -6.0765    1.7055 C   0  0  0  0  0  0
    3.4661   -7.1548    2.1764 N   0  0  0  0  0  0
    3.6829   -7.1434    3.5014 C   0  0  0  0  0  0
    3.3190   -6.1849    4.3773 N   0  0  0  0  0  0
    2.5593   -6.0433    0.3114 N   0  0  0  0  0  0
    2.3463   -7.0562   -0.6370 C   0  0  0  0  0  0
    2.7276   -6.8596   -1.9643 C   0  0  0  0  0  0
    2.5166   -7.8660   -2.9068 C   0  0  0  0  0  0
    1.9243   -9.0688   -2.5222 C   0  0  0  0  0  0
    1.5430   -9.2653   -1.1948 C   0  0  0  0  0  0
    1.7539   -8.2590   -0.2523 C   0  0  0  0  0  0
    0.8095  -10.7469   -0.7144 Cl  0  0  0  0  0  0
    1.7269  -10.0261   -3.4399 F   0  0  0  0  0  0
   -0.2866   -1.2469    6.3016 H   0  0  0  0  0  0
   -0.1478   -3.0361    6.2231 H   0  0  0  0  0  0
   -0.8632   -2.1296    4.8472 H   0  0  0  0  0  0
    2.4609   -4.1359    5.7713 H   0  0  0  0  0  0
    1.4750   -3.8159    0.9270 H   0  0  0  0  0  0
    2.4014   -1.0834    1.5310 H   0  0  0  0  0  0
    1.0927   -1.4262    0.3493 H   0  0  0  0  0  0
    1.3752    1.0248    0.6908 H   0  0  0  0  0  0
   -0.2326    0.4687    1.2673 H   0  0  0  0  0  0
    0.7698    2.0798    2.8187 H   0  0  0  0  0  0
    0.6002    0.4646    3.5863 H   0  0  0  0  0  0
    3.1440    1.9774    1.3466 H   0  0  0  0  0  0
    2.8022    3.0967    2.7094 H   0  0  0  0  0  0
    5.1795    1.1737    2.4945 H   0  0  0  0  0  0
    5.2333    2.9582    2.2960 H   0  0  0  0  0  0
    4.6798    0.2543    4.6159 H   0  0  0  0  0  0
    4.3653    1.3559    5.9994 H   0  0  0  0  0  0
    2.2862    2.1356    4.9319 H   0  0  0  0  0  0
    2.2709    0.3486    5.1137 H   0  0  0  0  0  0
    4.2073   -7.9970    3.9134 H   0  0  0  0  0  0
    2.5021   -5.0788   -0.2144 H   0  0  0  0  0  0
    3.1897   -5.9261   -2.2751 H   0  0  0  0  0  0
    2.8147   -7.7129   -3.9398 H   0  0  0  0  0  0
    1.4580   -8.4091    0.7838 H   0  0  0  0  0  0
    2.9709    0.0842    2.8248 H   0  0  0  0  0  0
  1  2  1  0  0  0
  1 32  1  0  0  0
  1 33  1  0  0  0
  1 34  1  0  0  0
  2  3  1  0  0  0
  3  8  2  0  0  0
  3  4  1  0  0  0
  4  5  2  0  0  0
  4 35  1  0  0  0
  5 22  1  0  0  0
  5  6  1  0  0  0
  6  7  2  0  0  0
  6 19  1  0  0  0
  7  8  1  0  0  0
  7 36  1  0  0  0
  8  9  1  0  0  0
  9 10  1  0  0  0
 10 11  1  0  0  0
 10 37  1  0  0  0
 10 38  1  0  0  0
 11 12  1  0  0  0
 11 39  1  0  0  0
 11 40  1  0  0  0
 12 13  1  0  0  0
 12 41  1  0  0  0
 12 42  1  0  0  0
 13 18  1  0  0  0
 13 14  1  0  0  0
 13 56  1  0  0  0
 14 15  1  0  0  0
 14 43  1  0  0  0
 14 44  1  0  0  0
 15 16  1  0  0  0
 15 45  1  0  0  0
 15 46  1  0  0  0
 16 17  1  0  0  0
 17 18  1  0  0  0
 17 47  1  0  0  0
 17 48  1  0  0  0
 18 49  1  0  0  0
 18 50  1  0  0  0
 19 20  2  0  0  0
 19 23  1  0  0  0
 20 21  1  0  0  0
 21 22  2  0  0  0
 21 51  1  0  0  0
 23 24  1  0  0  0
 23 52  1  0  0  0
 24 29  2  0  0  0
 24 25  1  0  0  0
 25 26  2  0  0  0
 25 53  1  0  0  0
 26 27  1  0  0  0
 26 54  1  0  0  0
 27 28  2  0  0  0
 27 31  1  0  0  0
 28 29  1  0  0  0
 28 30  1  0  0  0
 29 55  1  0  0  0
M  CHG  1  13   1
M  END
> <s_m_source_file>
/Users/choderaj/github/choderalab/mcce-charges/mcce-charges.jchodera/epik_inhibitors/output/Gefitinib/Gefitinib-input.mol2

> <i_m_source_file_index>
1

> <r_lp_tautomer_probability>
0.999978000241998

> <r_epik_Ionization_Penalty>
  0.7504

> <r_epik_Ionization_Penalty_Charging>
  0.7500

> <r_epik_Ionization_Penalty_Neutral>
  0.0003

> <r_epik_State_Penalty>
  0.7668

> <i_epik_Tot_Q>
1

$$$$
~{N}-(3-chloro-4-fluoro-phenyl)-7-methoxy-6-(3-morpholinopropoxy)quinazolin-4-amine
                    3D
 Structure written by MMmdl.
 56 59  0  0  1  0            999 V2000
   -0.1002   -2.1051    5.6392 C   0  0  0  0  0  0
    1.1895   -1.9793    5.0516 O   0  0  0  0  0  0
    1.5743   -2.9699    4.1989 C   0  0  0  0  0  0
    2.2530   -4.0830    4.7036 C   0  0  0  0  0  0
    2.6675   -5.1220    3.8739 C   0  0  0  0  0  0
    2.3820   -5.0193    2.5026 C   0  0  0  0  0  0
    1.7000   -3.9033    1.9874 C   0  0  0  0  0  0
    1.2972   -2.8797    2.8394 C   0  0  0  0  0  0
    0.6330   -1.7950    2.3306 O   0  0  0  0  0  0
    1.3179   -1.0276    1.3495 C   0  0  0  0  0  0
    0.8517    0.4200    1.4459 C   0  0  0  0  0  0
    1.1265    1.0393    2.8099 C   0  0  0  0  0  0
    2.5492    1.0487    3.1440 N   0  0  0  0  0  0
    3.2453    2.1290    2.4314 C   0  0  0  0  0  0
    4.7249    2.1260    2.8050 C   0  0  0  0  0  0
    4.8817    2.2782    4.2162 O   0  0  0  0  0  0
    4.2352    1.2145    4.9163 C   0  0  0  0  0  0
    2.7439    1.1944    4.5933 C   0  0  0  0  0  0
    2.8117   -6.0765    1.7055 C   0  0  0  0  0  0
    3.4661   -7.1548    2.1764 N   0  0  0  0  0  0
    3.6829   -7.1434    3.5014 C   0  0  0  0  0  0
    3.3190   -6.1849    4.3773 N   0  3  0  0  0  0
    2.5593   -6.0433    0.3114 N   0  0  0  0  0  0
    2.3463   -7.0562   -0.6370 C   0  0  0  0  0  0
    2.7276   -6.8596   -1.9643 C   0  0  0  0  0  0
    2.5166   -7.8660   -2.9068 C   0  0  0  0  0  0
    1.9243   -9.0688   -2.5222 C   0  0  0  0  0  0
    1.5430   -9.2653   -1.1948 C   0  0  0  0  0  0
    1.7539   -8.2590   -0.2523 C   0  0  0  0  0  0
    0.8095  -10.7469   -0.7144 Cl  0  0  0  0  0  0
    1.7269  -10.0261   -3.4399 F   0  0  0  0  0  0
   -0.2866   -1.2469    6.3016 H   0  0  0  0  0  0
   -0.1478   -3.0361    6.2231 H   0  0  0  0  0  0
   -0.8632   -2.1296    4.8472 H   0  0  0  0  0  0
    2.4609   -4.1359    5.7713 H   0  0  0  0  0  0
    1.4750   -3.8159    0.9270 H   0  0  0  0  0  0
    2.4014   -1.0834    1.5310 H   0  0  0  0  0  0
    1.0927   -1.4262    0.3493 H   0  0  0  0  0  0
    1.3752    1.0248    0.6908 H   0  0  0  0  0  0
   -0.2326    0.4687    1.2673 H   0  0  0  0  0  0
    0.7698    2.0798    2.8187 H   0  0  0  0  0  0
    0.6002    0.4646    3.5863 H   0  0  0  0  0  0
    3.1440    1.9774    1.3466 H   0  0  0  0  0  0
    2.8022    3.0967    2.7094 H   0  0  0  0  0  0
    5.1795    1.1737    2.4945 H   0  0  0  0  0  0
    5.2333    2.9582    2.2960 H   0  0  0  0  0  0
    4.6798    0.2543    4.6159 H   0  0  0  0  0  0
    4.3653    1.3559    5.9994 H   0  0  0  0  0  0
    2.2862    2.1356    4.9319 H   0  0  0  0  0  0
    2.2709    0.3486    5.1137 H   0  0  0  0  0  0
    4.2073   -7.9970    3.9134 H   0  0  0  0  0  0
    2.5021   -5.0788   -0.2144 H   0  0  0  0  0  0
    3.1897   -5.9261   -2.2751 H   0  0  0  0  0  0
    2.8147   -7.7129   -3.9398 H   0  0  0  0  0  0
    1.4580   -8.4091    0.7838 H   0  0  0  0  0  0
    3.5300   -6.2406    5.4554 H   0  0  0  0  0  0
  1  2  1  0  0  0
  1 32  1  0  0  0
  1 33  1  0  0  0
  1 34  1  0  0  0
  2  3  1  0  0  0
  3  8  2  0  0  0
  3  4  1  0  0  0
  4  5  2  0  0  0
  4 35  1  0  0  0
  5 22  1  0  0  0
  5  6  1  0  0  0
  6  7  2  0  0  0
  6 19  1  0  0  0
  7  8  1  0  0  0
  7 36  1  0  0  0
  8  9  1  0  0  0
  9 10  1  0  0  0
 10 11  1  0  0  0
 10 37  1  0  0  0
 10 38  1  0  0  0
 11 12  1  0  0  0
 11 39  1  0  0  0
 11 40  1  0  0  0
 12 13  1  0  0  0
 12 41  1  0  0  0
 12 42  1  0  0  0
 13 18  1  0  0  0
 13 14  1  0  0  0
 14 15  1  0  0  0
 14 43  1  0  0  0
 14 44  1  0  0  0
 15 16  1  0  0  0
 15 45  1  0  0  0
 15 46  1  0  0  0
 16 17  1  0  0  0
 17 18  1  0  0  0
 17 47  1  0  0  0
 17 48  1  0  0  0
 18 49  1  0  0  0
 18 50  1  0  0  0
 19 20  2  0  0  0
 19 23  1  0  0  0
 20 21  1  0  0  0
 21 22  2  0  0  0
 21 51  1  0  0  0
 22 56  1  0  0  0
 23 24  1  0  0  0
 23 52  1  0  0  0
 24 29  2  0  0  0
 24 25  1  0  0  0
 25 26  2  0  0  0
 25 53  1  0  0  0
 26 27  1  0  0  0
 26 54  1  0  0  0
 27 28  2  0  0  0
 27 31  1  0  0  0
 28 29  1  0  0  0
 28 30  1  0  0  0
 29 55  1  0  0  0
M  CHG  1  22   1
M  END
> <s_m_source_file>
/Users/choderaj/github/choderalab/mcce-charges/mcce-charges.jchodera/epik_inhibitors/output/Gefitinib/Gefitinib-input.mol2

> <i_m_source_file_index>
1

> <r_epik_Ionization_Penalty>
  4.6461

> <r_epik_Ionization_Penalty_Charging>
  4.4495

> <r_epik_Ionization_Penalty_Neutral>
  0.1965

> <r_epik_State_Penalty>
  4.9518

> <i_epik_Tot_Q>
1

$$$$
~{N}-(3-chloro-4-fluoro-phenyl)-7-methoxy-6-(3-morpholinopropoxy)quinazolin-4-amine
                    3D
 Structure written by MMmdl.
 57 60  0  0  1  0            999 V2000
   -0.1002   -2.1051    5.6392 C   0  0  0  0  0  0
    1.1895   -1.9793    5.0516 O   0  0  0  0  0  0
    1.5743   -2.9699    4.1989 C   0  0  0  0  0  0
    2.2530   -4.0830    4.7036 C   0  0  0  0  0  0
    2.6675   -5.1220    3.8739 C   0  0  0  0  0  0
    2.3820   -5.0193    2.5026 C   0  0  0  0  0  0
    1.7000   -3.9033    1.9874 C   0  0  0  0  0  0
    1.2972   -2.8797    2.8394 C   0  0  0  0  0  0
    0.6330   -1.7950    2.3306 O   0  0  0  0  0  0
    1.3179   -1.0276    1.3495 C   0  0  0  0  0  0
    0.8517    0.4200    1.4459 C   0  0  0  0  0  0
    1.1265    1.0393    2.8099 C   0  0  0  0  0  0
    2.5492    1.0487    3.1440 N   0  3  0  0  0  0
    3.2453    2.1290    2.4314 C   0  0  0  0  0  0
    4.7249    2.1260    2.8050 C   0  0  0  0  0  0
    4.8817    2.2782    4.2162 O   0  0  0  0  0  0
    4.2352    1.2145    4.9163 C   0  0  0  0  0  0
    2.7439    1.1944    4.5933 C   0  0  0  0  0  0
    2.8117   -6.0765    1.7055 C   0  0  0  0  0  0
    3.4661   -7.1548    2.1764 N   0  0  0  0  0  0
    3.6829   -7.1434    3.5014 C   0  0  0  0  0  0
    3.3190   -6.1849    4.3773 N   0  3  0  0  0  0
    2.5593   -6.0433    0.3114 N   0  0  0  0  0  0
    2.3463   -7.0562   -0.6370 C   0  0  0  0  0  0
    2.7276   -6.8596   -1.9643 C   0  0  0  0  0  0
    2.5166   -7.8660   -2.9068 C   0  0  0  0  0  0
    1.9243   -9.0688   -2.5222 C   0  0  0  0  0  0
    1.5430   -9.2653   -1.1948 C   0  0  0  0  0  0
    1.7539   -8.2590   -0.2523 C   0  0  0  0  0  0
    0.8095  -10.7469   -0.7144 Cl  0  0  0  0  0  0
    1.7269  -10.0261   -3.4399 F   0  0  0  0  0  0
   -0.2866   -1.2469    6.3016 H   0  0  0  0  0  0
   -0.1478   -3.0361    6.2231 H   0  0  0  0  0  0
   -0.8632   -2.1296    4.8472 H   0  0  0  0  0  0
    2.4609   -4.1359    5.7713 H   0  0  0  0  0  0
    1.4750   -3.8159    0.9270 H   0  0  0  0  0  0
    2.4014   -1.0834    1.5310 H   0  0  0  0  0  0
    1.0927   -1.4262    0.3493 H   0  0  0  0  0  0
    1.3752    1.0248    0.6908 H   0  0  0  0  0  0
   -0.2326    0.4687    1.2673 H   0  0  0  0  0  0
    0.7698    2.0798    2.8187 H   0  0  0  0  0  0
    0.6002    0.4646    3.5863 H   0  0  0  0  0  0
    3.1440    1.9774    1.3466 H   0  0  0  0  0  0
    2.8022    3.0967    2.7094 H   0  0  0  0  0  0
    5.1795    1.1737    2.4945 H   0  0  0  0  0  0
    5.2333    2.9582    2.2960 H   0  0  0  0  0  0
    4.6798    0.2543    4.6159 H   0  0  0  0  0  0
    4.3653    1.3559    5.9994 H   0  0  0  0  0  0
    2.2862    2.1356    4.9319 H   0  0  0  0  0  0
    2.2709    0.3486    5.1137 H   0  0  0  0  0  0
    4.2073   -7.9970    3.9134 H   0  0  0  0  0  0
    2.5021   -5.0788   -0.2144 H   0  0  0  0  0  0
    3.1897   -5.9261   -2.2751 H   0  0  0  0  0  0
    2.8147   -7.7129   -3.9398 H   0  0  0  0  0  0
    1.4580   -8.4091    0.7838 H   0  0  0  0  0  0
    2.9709    0.0842    2.8248 H   0  0  0  0  0  0
    3.5300   -6.2406    5.4554 H   0  0  0  0  0  0
  1  2  1  0  0  0
  1 32  1  0  0  0
  1 33  1  0  0  0
  1 34  1  0  0  0
  2  3  1  0  0  0
  3  8  2  0  0  0
  3  4  1  0  0  0
  4  5  2  0  0  0
  4 35  1  0  0  0
  5 22  1  0  0  0
  5  6  1  0  0  0
  6  7  2  0  0  0
  6 19  1  0  0  0
  7  8  1  0  0  0
  7 36  1  0  0  0
  8  9  1  0  0  0
  9 10  1  0  0  0
 10 11  1  0  0  0
 10 37  1  0  0  0
 10 38  1  0  0  0
 11 12  1  0  0  0
 11 39  1  0  0  0
 11 40  1  0  0  0
 12 13  1  0  0  0
 12 41  1  0  0  0
 12 42  1  0  0  0
 13 18  1  0  0  0
 13 14  1  0  0  0
 13 56  1  0  0  0
 14 15  1  0  0  0
 14 43  1  0  0  0
 14 44  1  0  0  0
 15 16  1  0  0  0
 15 45  1  0  0  0
 15 46  1  0  0  0
 16 17  1  0  0  0
 17 18  1  0  0  0
 17 47  1  0  0  0
 17 48  1  0  0  0
 18 49  1  0  0  0
 18 50  1  0  0  0
 19 20  2  0  0  0
 19 23  1  0  0  0
 20 21  1  0  0  0
 21 22  2  0  0  0
 21 51  1  0  0  0
 22 57  1  0  0  0
 23 24  1  0  0  0
 23 52  1  0  0  0
 24 29  2  0  0  0
 24 25  1  0  0  0
 25 26  2  0  0  0
 25 53  1  0  0  0
 26 27  1  0  0  0
 26 54  1  0  0  0
 27 28  2  0  0  0
 27 31  1  0  0  0
 28 29  1  0  0  0
 28 30  1  0  0  0
 29 55  1  0  0  0
M  CHG  2  13   1  22   1
M  END
> <s_m_source_file>
/Users/choderaj/github/choderalab/mcce-charges/mcce-charges.jchodera/epik_inhibitors/output/Gefitinib/Gefitinib-input.mol2

> <i_m_source_file_index>
1

> <r_lp_tautomer_probability>
0.993507999998615

> <r_epik_Ionization_Penalty>
  5.2528

> <r_epik_Ionization_Penalty_Charging>
  5.2525

> <r_epik_Ionization_Penalty_Neutral>
  0.0003

> <r_epik_State_Penalty>
  5.5569

> <i_epik_Tot_Q>
2

$$$$
