9-ethyl-6,6-dimethyl-8-(4-morpholino-1-piperidyl)-11-oxo-5~{H}-benzo[b]carbazole-3-carbonitrile
                    3D
 Structure written by MMmdl.
 71 76  0  0  1  0            999 V2000
    3.1160   -6.7698    0.2599 C   0  0  0  0  0  0
    4.2031   -5.7115    0.1530 C   0  0  0  0  0  0
    4.2904   -4.8774    1.3897 C   0  0  0  0  0  0
    3.5455   -3.7125    1.5256 C   0  0  0  0  0  0
    3.6461   -2.9505    2.6909 C   0  0  0  0  0  0
    4.4937   -3.3336    3.7502 C   0  0  0  0  0  0
    5.2449   -4.5236    3.5931 C   0  0  0  0  0  0
    5.1379   -5.2840    2.4176 C   0  0  0  0  0  0
    6.1723   -5.0198    4.6532 C   0  0  0  0  0  0
    6.8150   -6.0504    4.4977 O   0  0  0  0  0  0
    6.2658   -4.2239    5.8551 C   0  0  0  0  0  0
    5.5363   -3.0669    6.0089 C   0  0  0  0  0  0
    4.5734   -2.4608    5.0209 C   0  0  0  0  0  0
    5.0671   -1.0456    4.6471 C   0  0  0  0  0  0
    3.1769   -2.3703    5.6756 C   0  0  0  0  0  0
    5.8341   -2.5406    7.2389 N   0  0  0  0  0  0
    6.7469   -3.3398    7.8884 C   0  0  0  0  0  0
    7.0392   -4.4106    7.0392 C   0  0  0  0  0  0
    7.9611   -5.3836    7.4793 C   0  0  0  0  0  0
    8.5514   -5.2507    8.7415 C   0  0  0  0  0  0
    8.2386   -4.1716    9.5643 C   0  0  0  0  0  0
    7.3292   -3.1942    9.1528 C   0  0  0  0  0  0
    8.8564   -4.0599   10.8489 C   0  0  0  0  0  0
    9.3581   -3.9692   11.8920 N   0  0  0  0  0  0
    2.7017   -3.2942    0.5212 N   0  0  0  0  0  0
    1.2468   -3.3481    0.7095 C   0  0  0  0  0  0
    0.5609   -3.7390   -0.5970 C   0  0  0  0  0  0
    0.9702   -2.8024   -1.7356 C   0  0  0  0  0  0
    2.4932   -2.7673   -1.8695 C   0  0  0  0  0  0
    3.1695   -2.4049   -0.5468 C   0  0  0  0  0  0
    0.3501   -3.2099   -2.9946 N   0  3  0  0  0  0
   -1.1138   -3.2386   -2.8700 C   0  0  0  0  0  0
   -1.7383   -3.6549   -4.1987 C   0  0  0  0  0  0
   -1.3443   -2.7563   -5.2363 O   0  0  0  0  0  0
    0.0759   -2.7459   -5.3865 C   0  0  0  0  0  0
    0.7448   -2.3088   -4.0863 C   0  0  0  0  0  0
    3.0857   -7.3594   -0.6683 H   0  0  0  0  0  0
    2.1428   -6.2813    0.4159 H   0  0  0  0  0  0
    3.3332   -7.4341    1.1094 H   0  0  0  0  0  0
    5.1763   -6.2000   -0.0030 H   0  0  0  0  0  0
    3.9859   -5.0472   -0.6965 H   0  0  0  0  0  0
    3.0515   -2.0426    2.7723 H   0  0  0  0  0  0
    5.7134   -6.1988    2.2928 H   0  0  0  0  0  0
    5.1231   -0.4254    5.5539 H   0  0  0  0  0  0
    4.3654   -0.5891    3.9334 H   0  0  0  0  0  0
    6.0642   -1.1146    4.1878 H   0  0  0  0  0  0
    3.2359   -1.7480    6.5807 H   0  0  0  0  0  0
    2.8327   -3.3794    5.9462 H   0  0  0  0  0  0
    2.4678   -1.9190    4.9660 H   0  0  0  0  0  0
    5.3565   -1.6057    7.5674 H   0  0  0  0  0  0
    8.2188   -6.2328    6.8529 H   0  0  0  0  0  0
    9.2614   -6.0084    9.0673 H   0  0  0  0  0  0
    7.0763   -2.3479    9.7849 H   0  0  0  0  0  0
    1.0043   -4.0939    1.4809 H   0  0  0  0  0  0
    0.8813   -2.3603    1.0268 H   0  0  0  0  0  0
    0.8454   -4.7666   -0.8673 H   0  0  0  0  0  0
   -0.5302   -3.6821   -0.4696 H   0  0  0  0  0  0
    0.5883   -1.7897   -1.5389 H   0  0  0  0  0  0
    2.8565   -3.7567   -2.1842 H   0  0  0  0  0  0
    2.7780   -2.0161   -2.6209 H   0  0  0  0  0  0
    2.9245   -1.3636   -0.2905 H   0  0  0  0  0  0
    4.2589   -2.5082   -0.6592 H   0  0  0  0  0  0
   -1.4014   -3.9603   -2.0913 H   0  0  0  0  0  0
   -1.4781   -2.2378   -2.5949 H   0  0  0  0  0  0
   -1.4049   -4.6705   -4.4583 H   0  0  0  0  0  0
   -2.8346   -3.6405   -4.1091 H   0  0  0  0  0  0
    0.4245   -3.7562   -5.6468 H   0  0  0  0  0  0
    0.3549   -2.0444   -6.1865 H   0  0  0  0  0  0
    0.4332   -1.2819   -3.8449 H   0  0  0  0  0  0
    1.8372   -2.3407   -4.2112 H   0  0  0  0  0  0
    0.7062   -4.2246   -3.2260 H   0  0  0  0  0  0
  1  2  1  0  0  0
  1 37  1  0  0  0
  1 38  1  0  0  0
  1 39  1  0  0  0
  2  3  1  0  0  0
  2 40  1  0  0  0
  2 41  1  0  0  0
  3  8  2  0  0  0
  3  4  1  0  0  0
  4  5  2  0  0  0
  4 25  1  0  0  0
  5  6  1  0  0  0
  5 42  1  0  0  0
  6 13  1  0  0  0
  6  7  2  0  0  0
  7  8  1  0  0  0
  7  9  1  0  0  0
  8 43  1  0  0  0
  9 10  2  0  0  0
  9 11  1  0  0  0
 11 18  1  0  0  0
 11 12  2  0  0  0
 12 13  1  0  0  0
 12 16  1  0  0  0
 13 14  1  0  0  0
 13 15  1  0  0  0
 14 44  1  0  0  0
 14 45  1  0  0  0
 14 46  1  0  0  0
 15 47  1  0  0  0
 15 48  1  0  0  0
 15 49  1  0  0  0
 16 17  1  0  0  0
 16 50  1  0  0  0
 17 22  2  0  0  0
 17 18  1  0  0  0
 18 19  2  0  0  0
 19 20  1  0  0  0
 19 51  1  0  0  0
 20 21  2  0  0  0
 20 52  1  0  0  0
 21 22  1  0  0  0
 21 23  1  0  0  0
 22 53  1  0  0  0
 23 24  3  0  0  0
 25 30  1  0  0  0
 25 26  1  0  0  0
 26 27  1  0  0  0
 26 54  1  0  0  0
 26 55  1  0  0  0
 27 28  1  0  0  0
 27 56  1  0  0  0
 27 57  1  0  0  0
 28 29  1  0  0  0
 28 31  1  0  0  0
 28 58  1  0  0  0
 29 30  1  0  0  0
 29 59  1  0  0  0
 29 60  1  0  0  0
 30 61  1  0  0  0
 30 62  1  0  0  0
 31 36  1  0  0  0
 31 32  1  0  0  0
 31 71  1  0  0  0
 32 33  1  0  0  0
 32 63  1  0  0  0
 32 64  1  0  0  0
 33 34  1  0  0  0
 33 65  1  0  0  0
 33 66  1  0  0  0
 34 35  1  0  0  0
 35 36  1  0  0  0
 35 67  1  0  0  0
 35 68  1  0  0  0
 36 69  1  0  0  0
 36 70  1  0  0  0
M  CHG  1  31   1
M  END
> <s_m_source_file>
/cbio/jclab/home/andrrizzi/epik_inhibitors/output/Alectinib/Alectinib-input.mol2

> <i_m_source_file_index>
1

> <r_epik_Ionization_Penalty>
  0.3464

> <r_epik_Ionization_Penalty_Charging>
  0.3464

> <r_epik_Ionization_Penalty_Neutral>
  0.0000

> <r_epik_State_Penalty>
  0.3424

> <i_epik_Tot_Q>
1

$$$$
9-ethyl-6,6-dimethyl-8-(4-morpholino-1-piperidyl)-11-oxo-5~{H}-benzo[b]carbazole-3-carbonitrile
                    3D
 Structure written by MMmdl.
 70 75  0  0  1  0            999 V2000
    3.1160   -6.7698    0.2599 C   0  0  0  0  0  0
    4.2031   -5.7115    0.1530 C   0  0  0  0  0  0
    4.2904   -4.8774    1.3897 C   0  0  0  0  0  0
    3.5455   -3.7125    1.5256 C   0  0  0  0  0  0
    3.6461   -2.9505    2.6909 C   0  0  0  0  0  0
    4.4937   -3.3336    3.7502 C   0  0  0  0  0  0
    5.2449   -4.5236    3.5931 C   0  0  0  0  0  0
    5.1379   -5.2840    2.4176 C   0  0  0  0  0  0
    6.1723   -5.0198    4.6532 C   0  0  0  0  0  0
    6.8150   -6.0504    4.4977 O   0  0  0  0  0  0
    6.2658   -4.2239    5.8551 C   0  0  0  0  0  0
    5.5363   -3.0669    6.0089 C   0  0  0  0  0  0
    4.5734   -2.4608    5.0209 C   0  0  0  0  0  0
    5.0671   -1.0456    4.6471 C   0  0  0  0  0  0
    3.1769   -2.3703    5.6756 C   0  0  0  0  0  0
    5.8341   -2.5406    7.2389 N   0  0  0  0  0  0
    6.7469   -3.3398    7.8884 C   0  0  0  0  0  0
    7.0392   -4.4106    7.0392 C   0  0  0  0  0  0
    7.9611   -5.3836    7.4793 C   0  0  0  0  0  0
    8.5514   -5.2507    8.7415 C   0  0  0  0  0  0
    8.2386   -4.1716    9.5643 C   0  0  0  0  0  0
    7.3292   -3.1942    9.1528 C   0  0  0  0  0  0
    8.8564   -4.0599   10.8489 C   0  0  0  0  0  0
    9.3581   -3.9692   11.8920 N   0  0  0  0  0  0
    2.7017   -3.2942    0.5212 N   0  0  0  0  0  0
    1.2468   -3.3481    0.7095 C   0  0  0  0  0  0
    0.5609   -3.7390   -0.5970 C   0  0  0  0  0  0
    0.9702   -2.8024   -1.7356 C   0  0  0  0  0  0
    2.4932   -2.7673   -1.8695 C   0  0  0  0  0  0
    3.1695   -2.4049   -0.5468 C   0  0  0  0  0  0
    0.3501   -3.2099   -2.9946 N   0  0  0  0  0  0
   -1.1138   -3.2386   -2.8700 C   0  0  0  0  0  0
   -1.7383   -3.6549   -4.1987 C   0  0  0  0  0  0
   -1.3443   -2.7563   -5.2363 O   0  0  0  0  0  0
    0.0759   -2.7459   -5.3865 C   0  0  0  0  0  0
    0.7448   -2.3088   -4.0863 C   0  0  0  0  0  0
    3.0857   -7.3594   -0.6683 H   0  0  0  0  0  0
    2.1428   -6.2813    0.4159 H   0  0  0  0  0  0
    3.3332   -7.4341    1.1094 H   0  0  0  0  0  0
    5.1763   -6.2000   -0.0030 H   0  0  0  0  0  0
    3.9859   -5.0472   -0.6965 H   0  0  0  0  0  0
    3.0515   -2.0426    2.7723 H   0  0  0  0  0  0
    5.7134   -6.1988    2.2928 H   0  0  0  0  0  0
    5.1231   -0.4254    5.5539 H   0  0  0  0  0  0
    4.3654   -0.5891    3.9334 H   0  0  0  0  0  0
    6.0642   -1.1146    4.1878 H   0  0  0  0  0  0
    3.2359   -1.7480    6.5807 H   0  0  0  0  0  0
    2.8327   -3.3794    5.9462 H   0  0  0  0  0  0
    2.4678   -1.9190    4.9660 H   0  0  0  0  0  0
    5.3565   -1.6057    7.5674 H   0  0  0  0  0  0
    8.2188   -6.2328    6.8529 H   0  0  0  0  0  0
    9.2614   -6.0084    9.0673 H   0  0  0  0  0  0
    7.0763   -2.3479    9.7849 H   0  0  0  0  0  0
    1.0043   -4.0939    1.4809 H   0  0  0  0  0  0
    0.8813   -2.3603    1.0268 H   0  0  0  0  0  0
    0.8454   -4.7666   -0.8673 H   0  0  0  0  0  0
   -0.5302   -3.6821   -0.4696 H   0  0  0  0  0  0
    0.5883   -1.7897   -1.5389 H   0  0  0  0  0  0
    2.8565   -3.7567   -2.1842 H   0  0  0  0  0  0
    2.7780   -2.0161   -2.6209 H   0  0  0  0  0  0
    2.9245   -1.3636   -0.2905 H   0  0  0  0  0  0
    4.2589   -2.5082   -0.6592 H   0  0  0  0  0  0
   -1.4014   -3.9603   -2.0913 H   0  0  0  0  0  0
   -1.4781   -2.2378   -2.5949 H   0  0  0  0  0  0
   -1.4049   -4.6705   -4.4583 H   0  0  0  0  0  0
   -2.8346   -3.6405   -4.1091 H   0  0  0  0  0  0
    0.4245   -3.7562   -5.6468 H   0  0  0  0  0  0
    0.3549   -2.0444   -6.1865 H   0  0  0  0  0  0
    0.4332   -1.2819   -3.8449 H   0  0  0  0  0  0
    1.8372   -2.3407   -4.2112 H   0  0  0  0  0  0
  1  2  1  0  0  0
  1 37  1  0  0  0
  1 38  1  0  0  0
  1 39  1  0  0  0
  2  3  1  0  0  0
  2 40  1  0  0  0
  2 41  1  0  0  0
  3  8  2  0  0  0
  3  4  1  0  0  0
  4  5  2  0  0  0
  4 25  1  0  0  0
  5  6  1  0  0  0
  5 42  1  0  0  0
  6 13  1  0  0  0
  6  7  2  0  0  0
  7  8  1  0  0  0
  7  9  1  0  0  0
  8 43  1  0  0  0
  9 10  2  0  0  0
  9 11  1  0  0  0
 11 18  1  0  0  0
 11 12  2  0  0  0
 12 13  1  0  0  0
 12 16  1  0  0  0
 13 14  1  0  0  0
 13 15  1  0  0  0
 14 44  1  0  0  0
 14 45  1  0  0  0
 14 46  1  0  0  0
 15 47  1  0  0  0
 15 48  1  0  0  0
 15 49  1  0  0  0
 16 17  1  0  0  0
 16 50  1  0  0  0
 17 22  2  0  0  0
 17 18  1  0  0  0
 18 19  2  0  0  0
 19 20  1  0  0  0
 19 51  1  0  0  0
 20 21  2  0  0  0
 20 52  1  0  0  0
 21 22  1  0  0  0
 21 23  1  0  0  0
 22 53  1  0  0  0
 23 24  3  0  0  0
 25 30  1  0  0  0
 25 26  1  0  0  0
 26 27  1  0  0  0
 26 54  1  0  0  0
 26 55  1  0  0  0
 27 28  1  0  0  0
 27 56  1  0  0  0
 27 57  1  0  0  0
 28 29  1  0  0  0
 28 31  1  0  0  0
 28 58  1  0  0  0
 29 30  1  0  0  0
 29 59  1  0  0  0
 29 60  1  0  0  0
 30 61  1  0  0  0
 30 62  1  0  0  0
 31 36  1  0  0  0
 31 32  1  0  0  0
 32 33  1  0  0  0
 32 63  1  0  0  0
 32 64  1  0  0  0
 33 34  1  0  0  0
 33 65  1  0  0  0
 33 66  1  0  0  0
 34 35  1  0  0  0
 35 36  1  0  0  0
 35 67  1  0  0  0
 35 68  1  0  0  0
 36 69  1  0  0  0
 36 70  1  0  0  0
M  END
> <s_m_source_file>
/cbio/jclab/home/andrrizzi/epik_inhibitors/output/Alectinib/Alectinib-input.mol2

> <i_m_source_file_index>
1

> <r_epik_Ionization_Penalty>
  0.4828

> <r_epik_Ionization_Penalty_Charging>
  0.0000

> <r_epik_Ionization_Penalty_Neutral>
  0.4828

> <r_epik_State_Penalty>
  0.4879

> <i_epik_Tot_Q>
0

$$$$
