@<TRIPOS>MOLECULE
9-ethyl-6,6-dimethyl-8-(4-morpholino-1-piperidyl)-11-oxo-5~{H}-benzo[b]carbazole-3-carbonitrile
   70    75     0     0     0
SMALL
USER_CHARGES

@<TRIPOS>ATOM
      1 C1          3.1160   -6.7698    0.2599 C.3       1 ALE        -0.0871
      2 C2          4.2031   -5.7115    0.1530 C.3       1 ALE        -0.0310
      3 C3          4.2904   -4.8774    1.3897 C.ar      1 ALE        -0.0807
      4 C4          3.5455   -3.7125    1.5256 C.ar      1 ALE         0.1870
      5 C5          3.6461   -2.9505    2.6909 C.ar      1 ALE        -0.1637
      6 C6          4.4937   -3.3336    3.7502 C.ar      1 ALE        -0.0336
      7 C7          5.2449   -4.5236    3.5931 C.ar      1 ALE        -0.1577
      8 C8          5.1379   -5.2840    2.4176 C.ar      1 ALE        -0.0767
      9 C9          6.1723   -5.0198    4.6532 C.2       1 ALE         0.6198
     10 O1          6.8150   -6.0504    4.4977 O.2       1 ALE        -0.5483
     11 C10         6.2658   -4.2239    5.8551 C.2       1 ALE        -0.2246
     12 C11         5.5363   -3.0669    6.0089 C.2       1 ALE         0.1336
     13 C12         4.5734   -2.4608    5.0209 C.3       1 ALE         0.0425
     14 C13         5.0671   -1.0456    4.6471 C.3       1 ALE        -0.0885
     15 C14         3.1769   -2.3703    5.6756 C.3       1 ALE        -0.0885
     16 N1          5.8341   -2.5406    7.2389 N.pl3     1 ALE        -0.5649
     17 C15         6.7469   -3.3398    7.8884 C.ar      1 ALE         0.0603
     18 C16         7.0392   -4.4106    7.0392 C.ar      1 ALE        -0.0237
     19 C17         7.9611   -5.3836    7.4793 C.ar      1 ALE        -0.0830
     20 C18         8.5514   -5.2507    8.7415 C.ar      1 ALE        -0.1136
     21 C19         8.2386   -4.1716    9.5643 C.ar      1 ALE        -0.0078
     22 C20         7.3292   -3.1942    9.1528 C.ar      1 ALE        -0.0999
     23 C21         8.8564   -4.0599   10.8489 C.1       1 ALE         0.2357
     24 N2          9.3581   -3.9692   11.8920 N.1       1 ALE        -0.3689
     25 N3          2.7017   -3.2942    0.5212 N.pl3     1 ALE        -0.7586
     26 C22         1.2468   -3.3481    0.7095 C.3       1 ALE         0.2421
     27 C23         0.5609   -3.7390   -0.5970 C.3       1 ALE        -0.0911
     28 C24         0.9702   -2.8024   -1.7356 C.3       1 ALE         0.1924
     29 C25         2.4932   -2.7673   -1.8695 C.3       1 ALE        -0.0911
     30 C26         3.1695   -2.4049   -0.5468 C.3       1 ALE         0.2421
     31 N4          0.3501   -3.2099   -2.9946 N.3       1 ALE        -0.7223
     32 C27        -1.1138   -3.2386   -2.8700 C.3       1 ALE         0.1296
     33 C28        -1.7383   -3.6549   -4.1987 C.3       1 ALE         0.1254
     34 O2         -1.3443   -2.7563   -5.2363 O.3       1 ALE        -0.4155
     35 C29         0.0759   -2.7459   -5.3865 C.3       1 ALE         0.1254
     36 C30         0.7448   -2.3088   -4.0863 C.3       1 ALE         0.1296
     37 H1          3.0600   -7.3755   -0.6509 H         1 ALE         0.0369
     38 H2          2.1410   -6.2965    0.4128 H         1 ALE         0.0369
     39 H3          3.3008   -7.4455    1.1019 H         1 ALE         0.0369
     40 H4          4.0094   -5.0677   -0.7136 H         1 ALE         0.0518
     41 H5          5.1705   -6.1920   -0.0373 H         1 ALE         0.0518
     42 H6          3.0515   -2.0426    2.7723 H         1 ALE         0.1368
     43 H7          5.7134   -6.1988    2.2928 H         1 ALE         0.1614
     44 H8          4.3762   -0.6083    3.9369 H         1 ALE         0.0467
     45 H9          6.0529   -1.1224    4.2052 H         1 ALE         0.0467
     46 H10         5.1094   -0.4396    5.5437 H         1 ALE         0.0467
     47 H11         2.4840   -1.9348    4.9665 H         1 ALE         0.0467
     48 H12         3.2428   -1.7477    6.5592 H         1 ALE         0.0467
     49 H13         2.8512   -3.3666    5.9477 H         1 ALE         0.0467
     50 H14         5.4425   -1.6896    7.6183 H         1 ALE         0.4608
     51 H15         8.2188   -6.2328    6.8529 H         1 ALE         0.1658
     52 H16         9.2614   -6.0084    9.0673 H         1 ALE         0.1465
     53 H17         7.0763   -2.3479    9.7849 H         1 ALE         0.1453
     54 H18         0.9954   -4.0579    1.5122 H         1 ALE         0.0325
     55 H19         0.8658   -2.3647    1.0240 H         1 ALE         0.0325
     56 H20         0.7914   -4.7755   -0.8442 H         1 ALE         0.0544
     57 H21        -0.5208   -3.6698   -0.4629 H         1 ALE         0.0544
     58 H22         0.6183   -1.7937   -1.5006 H         1 ALE         0.0176
     59 H23         2.8767   -3.7247   -2.2328 H         1 ALE         0.0544
     60 H24         2.7596   -2.0137   -2.6182 H         1 ALE         0.0544
     61 H25         4.2636   -2.4658   -0.6396 H         1 ALE         0.0325
     62 H26         2.9274   -1.3589   -0.3082 H         1 ALE         0.0325
     63 H27        -1.4161   -3.9538   -2.0958 H         1 ALE         0.0409
     64 H28        -1.4914   -2.2479   -2.5834 H         1 ALE         0.0409
     65 H29        -1.4582   -4.6788   -4.4754 H         1 ALE         0.0539
     66 H30        -2.8299   -3.6193   -4.1251 H         1 ALE         0.0539
     67 H31         0.4181   -3.7387   -5.7029 H         1 ALE         0.0539
     68 H32         0.3214   -2.0400   -6.1865 H         1 ALE         0.0539
     69 H33         1.8327   -2.3279   -4.2211 H         1 ALE         0.0409
     70 H34         0.4497   -1.2769   -3.8535 H         1 ALE         0.0409
@<TRIPOS>BOND
     1    1    2 1
     2    2    3 1
     3    3    8 ar
     4    3    4 ar
     5    4    5 ar
     6    5    6 ar
     7    6   13 1
     8    6    7 ar
     9    7    8 ar
    10    7    9 1
    11    9   10 2
    12    9   11 1
    13   11   18 1
    14   11   12 2
    15   12   13 1
    16   13   14 1
    17   13   15 1
    18   12   16 1
    19   16   17 1
    20   17   22 ar
    21   17   18 ar
    22   18   19 ar
    23   19   20 ar
    24   20   21 ar
    25   21   22 ar
    26   21   23 1
    27   23   24 3
    28    4   25 1
    29   25   30 1
    30   25   26 1
    31   26   27 1
    32   27   28 1
    33   28   29 1
    34   29   30 1
    35   28   31 1
    36   31   36 1
    37   31   32 1
    38   32   33 1
    39   33   34 1
    40   34   35 1
    41   35   36 1
    42    1   37 1
    43    1   38 1
    44    1   39 1
    45    2   40 1
    46    2   41 1
    47    5   42 1
    48    8   43 1
    49   14   44 1
    50   14   45 1
    51   14   46 1
    52   15   47 1
    53   15   48 1
    54   15   49 1
    55   16   50 1
    56   19   51 1
    57   20   52 1
    58   22   53 1
    59   26   54 1
    60   26   55 1
    61   27   56 1
    62   27   57 1
    63   28   58 1
    64   29   59 1
    65   29   60 1
    66   30   61 1
    67   30   62 1
    68   32   63 1
    69   32   64 1
    70   33   65 1
    71   33   66 1
    72   35   67 1
    73   35   68 1
    74   36   69 1
    75   36   70 1
