EMH
                    3D
 Structure written by MMmdl.
 71 76  0  0  1  0            999 V2000
  -22.4010   14.1550  -10.5160 C   0  0  0  0  0  0
  -20.1640   15.1350  -10.7330 C   0  0  0  0  0  0
  -21.5450   15.1350  -11.0290 C   0  0  0  0  0  0
  -22.4310   12.1100   -9.0180 C   0  0  0  0  0  0
  -21.4340   11.4490   -8.3300 C   0  0  0  0  0  0
  -24.6420    8.1130   -6.6440 C   0  0  0  0  0  0
  -25.3930    9.9110   -8.0880 C   0  0  0  0  0  0
  -24.0840   10.3960   -8.1500 C   0  0  0  0  0  0
  -21.6250   10.2130   -7.4880 C   0  0  0  0  0  0
  -21.2180   10.5350   -6.0410 C   0  0  0  0  0  0
  -20.6900    9.1620   -8.0760 C   0  0  0  0  0  0
  -28.1260    9.4070   -7.0980 C   0  0  0  0  0  0
  -25.1870    4.2990   -4.7470 C   0  0  0  0  0  0
  -25.9750    4.7210   -5.9880 C   0  0  0  0  0  0
  -18.6010   16.8220  -11.6880 N   0  0  0  0  0  0
  -19.3540   16.0480  -11.2240 C   0  0  0  0  0  0
  -19.6410   14.1530   -9.8910 C   0  0  0  0  0  0
  -20.4810   13.1820   -9.3580 C   0  0  0  0  0  0
  -21.8460   13.1890   -9.6630 C   0  0  0  0  0  0
  -20.2580   12.1110   -8.5280 N   0  0  0  0  0  0
  -23.0250    9.7500   -7.4660 C   0  0  0  0  0  0
  -23.8330   11.6270   -8.9630 C   0  0  0  0  0  0
  -24.7640   12.1950   -9.5580 O   0  0  0  0  0  0
  -23.3280    8.5880   -6.7070 C   0  0  0  0  0  0
  -25.6720    8.7690   -7.3210 C   0  0  0  0  0  0
  -27.1110    8.2840   -7.2630 C   0  0  0  0  0  0
  -24.9540    6.9370   -5.8820 N   0  0  0  0  0  0
  -24.0260    6.5610   -4.8050 C   0  0  0  0  0  0
  -24.7950    5.5450   -3.9400 C   0  0  0  0  0  0
  -25.1670    5.7650   -6.7690 C   0  0  0  0  0  0
  -25.9240    3.3790   -3.8210 N   0  3  0  0  0  0
  -27.0110    2.5900   -4.4370 C   0  0  0  0  0  0
  -27.6660    1.7130   -3.3690 C   0  0  0  0  0  0
  -26.6850    0.8430   -2.7970 O   0  0  0  0  0  0
  -25.6310    1.5590   -2.1540 C   0  0  0  0  0  0
  -24.9470    2.4710   -3.1770 C   0  0  0  0  0  0
  -23.4510   14.1420  -10.7670 H   0  0  0  0  0  0
  -21.9490   15.9090  -11.6650 H   0  0  0  0  0  0
  -26.1840   10.4110   -8.6260 H   0  0  0  0  0  0
  -21.3525    9.6408   -5.4147 H   0  0  0  0  0  0
  -21.8477   11.3506   -5.6559 H   0  0  0  0  0  0
  -20.1626   10.8441   -6.0171 H   0  0  0  0  0  0
  -20.7815    8.2278   -7.5024 H   0  0  0  0  0  0
  -19.6526    9.5240   -8.0241 H   0  0  0  0  0  0
  -20.9614    8.9759   -9.1256 H   0  0  0  0  0  0
  -29.1402    8.9825   -7.0641 H   0  0  0  0  0  0
  -28.0470   10.1005   -7.9482 H   0  0  0  0  0  0
  -27.9240    9.9492   -6.1625 H   0  0  0  0  0  0
  -24.3239    3.7292   -5.1218 H   0  0  0  0  0  0
  -26.1547    3.8421   -6.6246 H   0  0  0  0  0  0
  -26.9382    5.1544   -5.6809 H   0  0  0  0  0  0
  -18.5870   14.1470   -9.6540 H   0  0  0  0  0  0
  -22.5420    8.0700   -6.1770 H   0  0  0  0  0  0
  -27.1900    7.5905   -6.4128 H   0  0  0  0  0  0
  -27.3130    7.7417   -8.1985 H   0  0  0  0  0  0
  -23.1199    6.1148   -5.2409 H   0  0  0  0  0  0
  -23.7524    7.4563   -4.2275 H   0  0  0  0  0  0
  -25.7026    6.0330   -3.5550 H   0  0  0  0  0  0
  -24.1524    5.2491   -3.0977 H   0  0  0  0  0  0
  -24.2002    5.3328   -7.0666 H   0  0  0  0  0  0
  -25.7266    6.0649   -7.6673 H   0  0  0  0  0  0
  -27.7611    3.2711   -4.8653 H   0  0  0  0  0  0
  -26.5966    1.9537   -5.2329 H   0  0  0  0  0  0
  -28.0929    2.3515   -2.5815 H   0  0  0  0  0  0
  -28.4654    1.1123   -3.8274 H   0  0  0  0  0  0
  -26.0461    2.1665   -1.3362 H   0  0  0  0  0  0
  -24.8990    0.8463   -1.7463 H   0  0  0  0  0  0
  -24.4695    1.8430   -3.9436 H   0  0  0  0  0  0
  -24.1795    3.0655   -2.6598 H   0  0  0  0  0  0
  -19.3367   11.7515   -8.0464 H   0  0  0  0  0  0
  -26.4376    4.0155   -3.0854 H   0  0  0  0  0  0
  1  3  1  0  0  0
  1 19  2  0  0  0
  1 37  1  0  0  0
  2  3  2  0  0  0
  2 16  1  0  0  0
  2 17  1  0  0  0
  3 38  1  0  0  0
  4  5  2  0  0  0
  4 19  1  0  0  0
  4 22  1  0  0  0
  5  9  1  0  0  0
  5 20  1  0  0  0
  6 24  2  0  0  0
  6 25  1  0  0  0
  6 27  1  0  0  0
  7  8  1  0  0  0
  7 25  2  0  0  0
  7 39  1  0  0  0
  8 21  2  0  0  0
  8 22  1  0  0  0
  9 10  1  0  0  0
  9 11  1  0  0  0
  9 21  1  0  0  0
 10 40  1  0  0  0
 10 41  1  0  0  0
 10 42  1  0  0  0
 11 43  1  0  0  0
 11 44  1  0  0  0
 11 45  1  0  0  0
 12 26  1  0  0  0
 12 46  1  0  0  0
 12 47  1  0  0  0
 12 48  1  0  0  0
 13 14  1  0  0  0
 13 29  1  0  0  0
 13 31  1  0  0  0
 13 49  1  0  0  0
 14 30  1  0  0  0
 14 50  1  0  0  0
 14 51  1  0  0  0
 15 16  3  0  0  0
 17 18  2  0  0  0
 17 52  1  0  0  0
 18 19  1  0  0  0
 18 20  1  0  0  0
 20 70  1  0  0  0
 21 24  1  0  0  0
 22 23  2  0  0  0
 24 53  1  0  0  0
 25 26  1  0  0  0
 26 54  1  0  0  0
 26 55  1  0  0  0
 27 28  1  0  0  0
 27 30  1  0  0  0
 28 29  1  0  0  0
 28 56  1  0  0  0
 28 57  1  0  0  0
 29 58  1  0  0  0
 29 59  1  0  0  0
 30 60  1  0  0  0
 30 61  1  0  0  0
 31 32  1  0  0  0
 31 36  1  0  0  0
 31 71  1  0  0  0
 32 33  1  0  0  0
 32 62  1  0  0  0
 32 63  1  0  0  0
 33 34  1  0  0  0
 33 64  1  0  0  0
 33 65  1  0  0  0
 34 35  1  0  0  0
 35 36  1  0  0  0
 35 66  1  0  0  0
 35 67  1  0  0  0
 36 68  1  0  0  0
 36 69  1  0  0  0
M  CHG  1  31   1
M  END
> <s_m_source_file>
/Users/choderaj/github/choderalab/mcce-charges/mcce-charges.jchodera/epik_inhibitors/output/Alectinib/Alectinib-input.mol2

> <i_m_source_file_index>
1

> <r_epik_Ionization_Penalty>
  0.3464

> <r_epik_Ionization_Penalty_Charging>
  0.3464

> <r_epik_Ionization_Penalty_Neutral>
  0.0000

> <r_epik_State_Penalty>
  0.3424

> <i_epik_Tot_Q>
1

$$$$
EMH
                    3D
 Structure written by MMmdl.
 70 75  0  0  1  0            999 V2000
  -22.4010   14.1550  -10.5160 C   0  0  0  0  0  0
  -20.1640   15.1350  -10.7330 C   0  0  0  0  0  0
  -21.5450   15.1350  -11.0290 C   0  0  0  0  0  0
  -22.4310   12.1100   -9.0180 C   0  0  0  0  0  0
  -21.4340   11.4490   -8.3300 C   0  0  0  0  0  0
  -24.6420    8.1130   -6.6440 C   0  0  0  0  0  0
  -25.3930    9.9110   -8.0880 C   0  0  0  0  0  0
  -24.0840   10.3960   -8.1500 C   0  0  0  0  0  0
  -21.6250   10.2130   -7.4880 C   0  0  0  0  0  0
  -21.2180   10.5350   -6.0410 C   0  0  0  0  0  0
  -20.6900    9.1620   -8.0760 C   0  0  0  0  0  0
  -28.1260    9.4070   -7.0980 C   0  0  0  0  0  0
  -25.1870    4.2990   -4.7470 C   0  0  0  0  0  0
  -25.9750    4.7210   -5.9880 C   0  0  0  0  0  0
  -18.6010   16.8220  -11.6880 N   0  0  0  0  0  0
  -19.3540   16.0480  -11.2240 C   0  0  0  0  0  0
  -19.6410   14.1530   -9.8910 C   0  0  0  0  0  0
  -20.4810   13.1820   -9.3580 C   0  0  0  0  0  0
  -21.8460   13.1890   -9.6630 C   0  0  0  0  0  0
  -20.2580   12.1110   -8.5280 N   0  0  0  0  0  0
  -23.0250    9.7500   -7.4660 C   0  0  0  0  0  0
  -23.8330   11.6270   -8.9630 C   0  0  0  0  0  0
  -24.7640   12.1950   -9.5580 O   0  0  0  0  0  0
  -23.3280    8.5880   -6.7070 C   0  0  0  0  0  0
  -25.6720    8.7690   -7.3210 C   0  0  0  0  0  0
  -27.1110    8.2840   -7.2630 C   0  0  0  0  0  0
  -24.9540    6.9370   -5.8820 N   0  0  0  0  0  0
  -24.0260    6.5610   -4.8050 C   0  0  0  0  0  0
  -24.7950    5.5450   -3.9400 C   0  0  0  0  0  0
  -25.1670    5.7650   -6.7690 C   0  0  0  0  0  0
  -25.9240    3.3790   -3.8210 N   0  0  0  0  0  0
  -27.0110    2.5900   -4.4370 C   0  0  0  0  0  0
  -27.6660    1.7130   -3.3690 C   0  0  0  0  0  0
  -26.6850    0.8430   -2.7970 O   0  0  0  0  0  0
  -25.6310    1.5590   -2.1540 C   0  0  0  0  0  0
  -24.9470    2.4710   -3.1770 C   0  0  0  0  0  0
  -23.4510   14.1420  -10.7670 H   0  0  0  0  0  0
  -21.9490   15.9090  -11.6650 H   0  0  0  0  0  0
  -26.1840   10.4110   -8.6260 H   0  0  0  0  0  0
  -21.3525    9.6408   -5.4147 H   0  0  0  0  0  0
  -21.8477   11.3506   -5.6559 H   0  0  0  0  0  0
  -20.1626   10.8441   -6.0171 H   0  0  0  0  0  0
  -20.7815    8.2278   -7.5024 H   0  0  0  0  0  0
  -19.6526    9.5240   -8.0241 H   0  0  0  0  0  0
  -20.9614    8.9759   -9.1256 H   0  0  0  0  0  0
  -29.1402    8.9825   -7.0641 H   0  0  0  0  0  0
  -28.0470   10.1005   -7.9482 H   0  0  0  0  0  0
  -27.9240    9.9492   -6.1625 H   0  0  0  0  0  0
  -24.3239    3.7292   -5.1218 H   0  0  0  0  0  0
  -26.1547    3.8421   -6.6246 H   0  0  0  0  0  0
  -26.9382    5.1544   -5.6809 H   0  0  0  0  0  0
  -18.5870   14.1470   -9.6540 H   0  0  0  0  0  0
  -22.5420    8.0700   -6.1770 H   0  0  0  0  0  0
  -27.1900    7.5905   -6.4128 H   0  0  0  0  0  0
  -27.3130    7.7417   -8.1985 H   0  0  0  0  0  0
  -23.1199    6.1148   -5.2409 H   0  0  0  0  0  0
  -23.7524    7.4563   -4.2275 H   0  0  0  0  0  0
  -25.7026    6.0330   -3.5550 H   0  0  0  0  0  0
  -24.1524    5.2491   -3.0977 H   0  0  0  0  0  0
  -24.2002    5.3328   -7.0666 H   0  0  0  0  0  0
  -25.7266    6.0649   -7.6673 H   0  0  0  0  0  0
  -27.7611    3.2711   -4.8653 H   0  0  0  0  0  0
  -26.5966    1.9537   -5.2329 H   0  0  0  0  0  0
  -28.0929    2.3515   -2.5815 H   0  0  0  0  0  0
  -28.4654    1.1123   -3.8274 H   0  0  0  0  0  0
  -26.0461    2.1665   -1.3362 H   0  0  0  0  0  0
  -24.8990    0.8463   -1.7463 H   0  0  0  0  0  0
  -24.4695    1.8430   -3.9436 H   0  0  0  0  0  0
  -24.1795    3.0655   -2.6598 H   0  0  0  0  0  0
  -19.3367   11.7515   -8.0464 H   0  0  0  0  0  0
  1  3  1  0  0  0
  1 19  2  0  0  0
  1 37  1  0  0  0
  2  3  2  0  0  0
  2 16  1  0  0  0
  2 17  1  0  0  0
  3 38  1  0  0  0
  4  5  2  0  0  0
  4 19  1  0  0  0
  4 22  1  0  0  0
  5  9  1  0  0  0
  5 20  1  0  0  0
  6 24  2  0  0  0
  6 25  1  0  0  0
  6 27  1  0  0  0
  7  8  1  0  0  0
  7 25  2  0  0  0
  7 39  1  0  0  0
  8 21  2  0  0  0
  8 22  1  0  0  0
  9 10  1  0  0  0
  9 11  1  0  0  0
  9 21  1  0  0  0
 10 40  1  0  0  0
 10 41  1  0  0  0
 10 42  1  0  0  0
 11 43  1  0  0  0
 11 44  1  0  0  0
 11 45  1  0  0  0
 12 26  1  0  0  0
 12 46  1  0  0  0
 12 47  1  0  0  0
 12 48  1  0  0  0
 13 14  1  0  0  0
 13 29  1  0  0  0
 13 31  1  0  0  0
 13 49  1  0  0  0
 14 30  1  0  0  0
 14 50  1  0  0  0
 14 51  1  0  0  0
 15 16  3  0  0  0
 17 18  2  0  0  0
 17 52  1  0  0  0
 18 19  1  0  0  0
 18 20  1  0  0  0
 20 70  1  0  0  0
 21 24  1  0  0  0
 22 23  2  0  0  0
 24 53  1  0  0  0
 25 26  1  0  0  0
 26 54  1  0  0  0
 26 55  1  0  0  0
 27 28  1  0  0  0
 27 30  1  0  0  0
 28 29  1  0  0  0
 28 56  1  0  0  0
 28 57  1  0  0  0
 29 58  1  0  0  0
 29 59  1  0  0  0
 30 60  1  0  0  0
 30 61  1  0  0  0
 31 32  1  0  0  0
 31 36  1  0  0  0
 32 33  1  0  0  0
 32 62  1  0  0  0
 32 63  1  0  0  0
 33 34  1  0  0  0
 33 64  1  0  0  0
 33 65  1  0  0  0
 34 35  1  0  0  0
 35 36  1  0  0  0
 35 66  1  0  0  0
 35 67  1  0  0  0
 36 68  1  0  0  0
 36 69  1  0  0  0
M  END
> <s_m_source_file>
/Users/choderaj/github/choderalab/mcce-charges/mcce-charges.jchodera/epik_inhibitors/output/Alectinib/Alectinib-input.mol2

> <i_m_source_file_index>
1

> <r_epik_Ionization_Penalty>
  0.4828

> <r_epik_Ionization_Penalty_Charging>
  0.0000

> <r_epik_Ionization_Penalty_Neutral>
  0.4828

> <r_epik_State_Penalty>
  0.4879

> <i_epik_Tot_Q>
0

$$$$
