@<TRIPOS>MOLECULE
EMH
   70    75     1     0     0
SMALL
NO_CHARGES

@<TRIPOS>ATOM
      1  C4       -22.4010   14.1550  -10.5160 C.ar      1 EMH         0.0000
      2  C5       -20.1640   15.1350  -10.7330 C.ar      1 EMH         0.0000
      3  C6       -21.5450   15.1350  -11.0290 C.ar      1 EMH         0.0000
      4  C7       -22.4310   12.1100   -9.0180 C.ar      1 EMH         0.0000
      5  C8       -21.4340   11.4490   -8.3300 C.ar      1 EMH         0.0000
      6  C10      -24.6420    8.1130   -6.6440 C.ar      1 EMH         0.0000
      7  C13      -25.3930    9.9110   -8.0880 C.ar      1 EMH         0.0000
      8  C15      -24.0840   10.3960   -8.1500 C.ar      1 EMH         0.0000
      9  C17      -21.6250   10.2130   -7.4880 C.3       1 EMH         0.0000
     10  C21      -21.2180   10.5350   -6.0410 C.3       1 EMH         0.0000
     11  C22      -20.6900    9.1620   -8.0760 C.3       1 EMH         0.0000
     12  C24      -28.1260    9.4070   -7.0980 C.3       1 EMH         0.0000
     13  C26      -25.1870    4.2990   -4.7470 C.3       1 EMH         0.0000
     14  C28      -25.9750    4.7210   -5.9880 C.3       1 EMH         0.0000
     15  N19      -18.6010   16.8220  -11.6880 N.1       1 EMH         0.0000
     16  C18      -19.3540   16.0480  -11.2240 C.1       1 EMH         0.0000
     17  C3       -19.6410   14.1530   -9.8910 C.ar      1 EMH         0.0000
     18  C1       -20.4810   13.1820   -9.3580 C.ar      1 EMH         0.0000
     19  C2       -21.8460   13.1890   -9.6630 C.ar      1 EMH         0.0000
     20  N9       -20.2580   12.1110   -8.5280 N.pl3     1 EMH         0.0000
     21  C14      -23.0250    9.7500   -7.4660 C.ar      1 EMH         0.0000
     22  C16      -23.8330   11.6270   -8.9630 C.2       1 EMH         0.0000
     23  O20      -24.7640   12.1950   -9.5580 O.2       1 EMH         0.0000
     24  C12      -23.3280    8.5880   -6.7070 C.ar      1 EMH         0.0000
     25  C11      -25.6720    8.7690   -7.3210 C.ar      1 EMH         0.0000
     26  C23      -27.1110    8.2840   -7.2630 C.3       1 EMH         0.0000
     27  N25      -24.9540    6.9370   -5.8820 N.pl3     1 EMH         0.0000
     28  C29      -24.0260    6.5610   -4.8050 C.3       1 EMH         0.0000
     29  C27      -24.7950    5.5450   -3.9400 C.3       1 EMH         0.0000
     30  C30      -25.1670    5.7650   -6.7690 C.3       1 EMH         0.0000
     31  N31      -25.9240    3.3790   -3.8210 N.3       1 EMH         0.0000
     32  C32      -27.0110    2.5900   -4.4370 C.3       1 EMH         0.0000
     33  C34      -27.6660    1.7130   -3.3690 C.3       1 EMH         0.0000
     34  O36      -26.6850    0.8430   -2.7970 O.3       1 EMH         0.0000
     35  C35      -25.6310    1.5590   -2.1540 C.3       1 EMH         0.0000
     36  C33      -24.9470    2.4710   -3.1770 C.3       1 EMH         0.0000
     37  H4       -23.4510   14.1420  -10.7670 H         1 EMH         0.0000
     38  H6       -21.9490   15.9090  -11.6650 H         1 EMH         0.0000
     39  H13      -26.1840   10.4110   -8.6260 H         1 EMH         0.0000
     40  H21      -21.3520    9.6410   -5.4140 H         1 EMH         0.0000
     41 H21A      -20.1630   10.8440   -6.0170 H         1 EMH         0.0000
     42 H21B      -21.8480   11.3510   -5.6560 H         1 EMH         0.0000
     43  H22      -20.7810    8.2280   -7.5030 H         1 EMH         0.0000
     44 H22A      -20.9620    8.9760   -9.1260 H         1 EMH         0.0000
     45 H22B      -19.6530    9.5240   -8.0240 H         1 EMH         0.0000
     46  H24      -29.1400    8.9830   -7.0640 H         1 EMH         0.0000
     47 H24A      -27.9240    9.9490   -6.1620 H         1 EMH         0.0000
     48 H24B      -28.0470   10.1000   -7.9480 H         1 EMH         0.0000
     49  H26      -24.3150    3.7500   -5.1320 H         1 EMH         0.0000
     50  H28      -26.1550    3.8430   -6.6260 H         1 EMH         0.0000
     51 H28A      -26.9390    5.1550   -5.6820 H         1 EMH         0.0000
     52  H3       -18.5870   14.1470   -9.6540 H         1 EMH         0.0000
     53  H12      -22.5420    8.0700   -6.1770 H         1 EMH         0.0000
     54  H23      -27.2090    7.6050   -6.4030 H         1 EMH         0.0000
     55 H23A      -27.3330    7.7580   -8.2030 H         1 EMH         0.0000
     56  H29      -23.1100    6.1120   -5.2160 H         1 EMH         0.0000
     57 H29A      -23.7370    7.4410   -4.2120 H         1 EMH         0.0000
     58  H27      -25.7100    6.0240   -3.5610 H         1 EMH         0.0000
     59 H27A      -24.1530    5.2360   -3.1020 H         1 EMH         0.0000
     60  H30      -24.1980    5.3410   -7.0710 H         1 EMH         0.0000
     61 H30A      -25.7190    6.0710   -7.6700 H         1 EMH         0.0000
     62  H32      -27.7620    3.2700   -4.8660 H         1 EMH         0.0000
     63 H32A      -26.5980    1.9530   -5.2330 H         1 EMH         0.0000
     64  H34      -28.0930    2.3520   -2.5820 H         1 EMH         0.0000
     65 H34A      -28.4650    1.1120   -3.8280 H         1 EMH         0.0000
     66  H35      -26.0440    2.1670   -1.3360 H         1 EMH         0.0000
     67 H35A      -24.8980    0.8480   -1.7460 H         1 EMH         0.0000
     68  H33      -24.4750    1.8480   -3.9510 H         1 EMH         0.0000
     69 H33A      -24.1840    3.0740   -2.6630 H         1 EMH         0.0000
     70  H9       -19.3750   11.8570   -8.1320 H         1 EMH         0.0000
@<TRIPOS>BOND
     1    1    3 ar
     2    1   19 ar
     3    1   37 1
     4    2    3 ar
     5    2   16 1
     6    2   17 ar
     7    3   38 1
     8    4    5 ar
     9    4   19 ar
    10    4   22 1
    11    5    9 1
    12    5   20 ar
    13    6   24 ar
    14    6   25 ar
    15    6   27 1
    16    7    8 ar
    17    7   25 ar
    18    7   39 1
    19    8   21 ar
    20    8   22 1
    21    9   10 1
    22    9   11 1
    23    9   21 1
    24   10   40 1
    25   10   41 1
    26   10   42 1
    27   11   43 1
    28   11   44 1
    29   11   45 1
    30   12   26 1
    31   12   46 1
    32   12   47 1
    33   12   48 1
    34   13   14 1
    35   13   29 1
    36   13   31 1
    37   13   49 1
    38   14   30 1
    39   14   50 1
    40   14   51 1
    41   15   16 3
    42   17   18 ar
    43   17   52 1
    44   18   19 ar
    45   18   20 ar
    46   20   70 1
    47   21   24 ar
    48   22   23 2
    49   24   53 1
    50   25   26 1
    51   26   54 1
    52   26   55 1
    53   27   28 1
    54   27   30 1
    55   28   29 1
    56   28   56 1
    57   28   57 1
    58   29   58 1
    59   29   59 1
    60   30   60 1
    61   30   61 1
    62   31   32 1
    63   31   36 1
    64   32   33 1
    65   32   62 1
    66   32   63 1
    67   33   34 1
    68   33   64 1
    69   33   65 1
    70   34   35 1
    71   35   36 1
    72   35   66 1
    73   35   67 1
    74   36   68 1
    75   36   69 1
@<TRIPOS>SUBSTRUCTURE
     1 EMH         1 GROUP 0 A     ****
