@<TRIPOS>MOLECULE
9-ethyl-6,6-dimethyl-8-(4-morpholino-1-piperidyl)-11-oxo-5~{H}-benzo[b]carbazole-3-carbonitrile
71   76    1
SMALL
USER_CHARGES


@<TRIPOS>ATOM
      1 C1          3.1160   -6.7698    0.2599 C.3       1 ALE        -0.0871 
      2 C2          4.2031   -5.7115    0.1530 C.3       1 ALE        -0.0310 
      3 C3          4.2904   -4.8774    1.3897 C.ar      1 ALE        -0.0807 
      4 C4          3.5455   -3.7125    1.5256 C.ar      1 ALE         0.1870 
      5 C5          3.6461   -2.9505    2.6909 C.ar      1 ALE        -0.1637 
      6 C6          4.4937   -3.3336    3.7502 C.ar      1 ALE        -0.0336 
      7 C7          5.2449   -4.5236    3.5931 C.ar      1 ALE        -0.1577 
      8 C8          5.1379   -5.2840    2.4176 C.ar      1 ALE        -0.0767 
      9 C9          6.1723   -5.0198    4.6532 C.2       1 ALE         0.6198 
     10 O1          6.8150   -6.0504    4.4977 O.2       1 ALE        -0.5483 
     11 C10         6.2658   -4.2239    5.8551 C.ar      1 ALE        -0.2246 
     12 C11         5.5363   -3.0669    6.0089 C.ar      1 ALE         0.1336 
     13 C12         4.5734   -2.4608    5.0209 C.3       1 ALE         0.0425 
     14 C13         5.0671   -1.0456    4.6471 C.3       1 ALE        -0.0885 
     15 C14         3.1769   -2.3703    5.6756 C.3       1 ALE        -0.0885 
     16 N1          5.8341   -2.5406    7.2389 N.pl3     1 ALE        -0.5649 
     17 C15         6.7469   -3.3398    7.8884 C.ar      1 ALE         0.0603 
     18 C16         7.0392   -4.4106    7.0392 C.ar      1 ALE        -0.0237 
     19 C17         7.9611   -5.3836    7.4793 C.ar      1 ALE        -0.0830 
     20 C18         8.5514   -5.2507    8.7415 C.ar      1 ALE        -0.1136 
     21 C19         8.2386   -4.1716    9.5643 C.ar      1 ALE        -0.0078 
     22 C20         7.3292   -3.1942    9.1528 C.ar      1 ALE        -0.0999 
     23 C21         8.8564   -4.0599   10.8489 C.1       1 ALE         0.2357 
     24 N2          9.3581   -3.9692   11.8920 N.1       1 ALE        -0.3689 
     25 N3          2.7017   -3.2942    0.5212 N.pl3     1 ALE        -0.7586 
     26 C22         1.2468   -3.3481    0.7095 C.3       1 ALE         0.2421 
     27 C23         0.5609   -3.7390   -0.5970 C.3       1 ALE        -0.0911 
     28 C24         0.9702   -2.8024   -1.7356 C.3       1 ALE         0.1924 
     29 C25         2.4932   -2.7673   -1.8695 C.3       1 ALE        -0.0911 
     30 C26         3.1695   -2.4049   -0.5468 C.3       1 ALE         0.2421 
     31 N4          0.3501   -3.2099   -2.9946 N.4       1 ALE        -0.7223 
     32 C27        -1.1138   -3.2386   -2.8700 C.3       1 ALE         0.1296 
     33 C28        -1.7383   -3.6549   -4.1987 C.3       1 ALE         0.1254 
     34 O2         -1.3443   -2.7563   -5.2363 O.3       1 ALE        -0.4155 
     35 C29         0.0759   -2.7459   -5.3865 C.3       1 ALE         0.1254 
     36 C30         0.7448   -2.3088   -4.0863 C.3       1 ALE         0.1296 
     37 H1          3.0857   -7.3594   -0.6683 H         1 ALE         0.0369 
     38 H2          2.1428   -6.2813    0.4159 H         1 ALE         0.0369 
     39 H3          3.3332   -7.4341    1.1094 H         1 ALE         0.0369 
     40 H4          5.1763   -6.2000   -0.0030 H         1 ALE         0.0518 
     41 H5          3.9859   -5.0472   -0.6965 H         1 ALE         0.0518 
     42 H6          3.0515   -2.0426    2.7723 H         1 ALE         0.1368 
     43 H7          5.7134   -6.1988    2.2928 H         1 ALE         0.1614 
     44 H8          5.1231   -0.4254    5.5539 H         1 ALE         0.0467 
     45 H9          4.3654   -0.5891    3.9334 H         1 ALE         0.0467 
     46 H10         6.0642   -1.1146    4.1878 H         1 ALE         0.0467 
     47 H11         3.2359   -1.7480    6.5807 H         1 ALE         0.0467 
     48 H12         2.8327   -3.3794    5.9462 H         1 ALE         0.0467 
     49 H13         2.4678   -1.9190    4.9660 H         1 ALE         0.0467 
     50 H14         5.3565   -1.6057    7.5674 H         1 ALE         0.4608 
     51 H15         8.2188   -6.2328    6.8529 H         1 ALE         0.1658 
     52 H16         9.2614   -6.0084    9.0673 H         1 ALE         0.1465 
     53 H17         7.0763   -2.3479    9.7849 H         1 ALE         0.1453 
     54 H18         1.0043   -4.0939    1.4809 H         1 ALE         0.0325 
     55 H19         0.8813   -2.3603    1.0268 H         1 ALE         0.0325 
     56 H20         0.8454   -4.7666   -0.8673 H         1 ALE         0.0544 
     57 H21        -0.5302   -3.6821   -0.4696 H         1 ALE         0.0544 
     58 H22         0.5883   -1.7897   -1.5389 H         1 ALE         0.0176 
     59 H23         2.8565   -3.7567   -2.1842 H         1 ALE         0.0544 
     60 H24         2.7780   -2.0161   -2.6209 H         1 ALE         0.0544 
     61 H25         2.9245   -1.3636   -0.2905 H         1 ALE         0.0325 
     62 H26         4.2589   -2.5082   -0.6592 H         1 ALE         0.0325 
     63 H27        -1.4014   -3.9603   -2.0913 H         1 ALE         0.0409 
     64 H28        -1.4781   -2.2378   -2.5949 H         1 ALE         0.0409 
     65 H29        -1.4049   -4.6705   -4.4583 H         1 ALE         0.0539 
     66 H30        -2.8346   -3.6405   -4.1091 H         1 ALE         0.0539 
     67 H31         0.4245   -3.7562   -5.6468 H         1 ALE         0.0539 
     68 H32         0.3549   -2.0444   -6.1865 H         1 ALE         0.0539 
     69 H33         0.4332   -1.2819   -3.8449 H         1 ALE         0.0409 
     70 H34         1.8372   -2.3407   -4.2112 H         1 ALE         0.0409 
     71 H71         0.7062   -4.2246   -3.2260 H         1 ALE         0.0000 
@<TRIPOS>BOND
     1    1    2 1    
     2    1   37 1    
     3    1   38 1    
     4    1   39 1    
     5    2    3 1    
     6    2   40 1    
     7    2   41 1    
     8    3    8 ar   
     9    3    4 ar   
    10    4    5 ar   
    11    4   25 1    
    12    5    6 ar   
    13    5   42 1    
    14    6   13 1    
    15    6    7 ar   
    16    7    8 ar   
    17    7    9 1    
    18    8   43 1    
    19    9   10 2    
    20    9   11 1    
    21   11   18 ar   
    22   11   12 ar   
    23   12   13 1    
    24   12   16 ar   
    25   13   14 1    
    26   13   15 1    
    27   14   44 1    
    28   14   45 1    
    29   14   46 1    
    30   15   47 1    
    31   15   48 1    
    32   15   49 1    
    33   16   17 ar   
    34   16   50 1    
    35   17   22 ar   
    36   17   18 ar   
    37   18   19 ar   
    38   19   20 ar   
    39   19   51 1    
    40   20   21 ar   
    41   20   52 1    
    42   21   22 ar   
    43   21   23 1    
    44   22   53 1    
    45   23   24 3    
    46   25   30 1    
    47   25   26 1    
    48   26   27 1    
    49   26   54 1    
    50   26   55 1    
    51   27   28 1    
    52   27   56 1    
    53   27   57 1    
    54   28   29 1    
    55   28   31 1    
    56   28   58 1    
    57   29   30 1    
    58   29   59 1    
    59   29   60 1    
    60   30   61 1    
    61   30   62 1    
    62   31   36 1    
    63   31   32 1    
    64   31   71 1    
    65   32   33 1    
    66   32   63 1    
    67   32   64 1    
    68   33   34 1    
    69   33   65 1    
    70   33   66 1    
    71   34   35 1    
    72   35   36 1    
    73   35   67 1    
    74   35   68 1    
    75   36   69 1    
    76   36   70 1    
@<TRIPOS>SUBSTRUCTURE
     1 ALE         1 GROUP             0       ****    0 ROOT    
@<TRIPOS>MOLECULE
9-ethyl-6,6-dimethyl-8-(4-morpholino-1-piperidyl)-11-oxo-5~{H}-benzo[b]carbazole-3-carbonitrile
70   75    1
SMALL
USER_CHARGES


@<TRIPOS>ATOM
      1 C1          3.1160   -6.7698    0.2599 C.3       1 ALE        -0.0871 
      2 C2          4.2031   -5.7115    0.1530 C.3       1 ALE        -0.0310 
      3 C3          4.2904   -4.8774    1.3897 C.ar      1 ALE        -0.0807 
      4 C4          3.5455   -3.7125    1.5256 C.ar      1 ALE         0.1870 
      5 C5          3.6461   -2.9505    2.6909 C.ar      1 ALE        -0.1637 
      6 C6          4.4937   -3.3336    3.7502 C.ar      1 ALE        -0.0336 
      7 C7          5.2449   -4.5236    3.5931 C.ar      1 ALE        -0.1577 
      8 C8          5.1379   -5.2840    2.4176 C.ar      1 ALE        -0.0767 
      9 C9          6.1723   -5.0198    4.6532 C.2       1 ALE         0.6198 
     10 O1          6.8150   -6.0504    4.4977 O.2       1 ALE        -0.5483 
     11 C10         6.2658   -4.2239    5.8551 C.ar      1 ALE        -0.2246 
     12 C11         5.5363   -3.0669    6.0089 C.ar      1 ALE         0.1336 
     13 C12         4.5734   -2.4608    5.0209 C.3       1 ALE         0.0425 
     14 C13         5.0671   -1.0456    4.6471 C.3       1 ALE        -0.0885 
     15 C14         3.1769   -2.3703    5.6756 C.3       1 ALE        -0.0885 
     16 N1          5.8341   -2.5406    7.2389 N.pl3     1 ALE        -0.5649 
     17 C15         6.7469   -3.3398    7.8884 C.ar      1 ALE         0.0603 
     18 C16         7.0392   -4.4106    7.0392 C.ar      1 ALE        -0.0237 
     19 C17         7.9611   -5.3836    7.4793 C.ar      1 ALE        -0.0830 
     20 C18         8.5514   -5.2507    8.7415 C.ar      1 ALE        -0.1136 
     21 C19         8.2386   -4.1716    9.5643 C.ar      1 ALE        -0.0078 
     22 C20         7.3292   -3.1942    9.1528 C.ar      1 ALE        -0.0999 
     23 C21         8.8564   -4.0599   10.8489 C.1       1 ALE         0.2357 
     24 N2          9.3581   -3.9692   11.8920 N.1       1 ALE        -0.3689 
     25 N3          2.7017   -3.2942    0.5212 N.pl3     1 ALE        -0.7586 
     26 C22         1.2468   -3.3481    0.7095 C.3       1 ALE         0.2421 
     27 C23         0.5609   -3.7390   -0.5970 C.3       1 ALE        -0.0911 
     28 C24         0.9702   -2.8024   -1.7356 C.3       1 ALE         0.1924 
     29 C25         2.4932   -2.7673   -1.8695 C.3       1 ALE        -0.0911 
     30 C26         3.1695   -2.4049   -0.5468 C.3       1 ALE         0.2421 
     31 N4          0.3501   -3.2099   -2.9946 N.3       1 ALE        -0.7223 
     32 C27        -1.1138   -3.2386   -2.8700 C.3       1 ALE         0.1296 
     33 C28        -1.7383   -3.6549   -4.1987 C.3       1 ALE         0.1254 
     34 O2         -1.3443   -2.7563   -5.2363 O.3       1 ALE        -0.4155 
     35 C29         0.0759   -2.7459   -5.3865 C.3       1 ALE         0.1254 
     36 C30         0.7448   -2.3088   -4.0863 C.3       1 ALE         0.1296 
     37 H1          3.0857   -7.3594   -0.6683 H         1 ALE         0.0369 
     38 H2          2.1428   -6.2813    0.4159 H         1 ALE         0.0369 
     39 H3          3.3332   -7.4341    1.1094 H         1 ALE         0.0369 
     40 H4          5.1763   -6.2000   -0.0030 H         1 ALE         0.0518 
     41 H5          3.9859   -5.0472   -0.6965 H         1 ALE         0.0518 
     42 H6          3.0515   -2.0426    2.7723 H         1 ALE         0.1368 
     43 H7          5.7134   -6.1988    2.2928 H         1 ALE         0.1614 
     44 H8          5.1231   -0.4254    5.5539 H         1 ALE         0.0467 
     45 H9          4.3654   -0.5891    3.9334 H         1 ALE         0.0467 
     46 H10         6.0642   -1.1146    4.1878 H         1 ALE         0.0467 
     47 H11         3.2359   -1.7480    6.5807 H         1 ALE         0.0467 
     48 H12         2.8327   -3.3794    5.9462 H         1 ALE         0.0467 
     49 H13         2.4678   -1.9190    4.9660 H         1 ALE         0.0467 
     50 H14         5.3565   -1.6057    7.5674 H         1 ALE         0.4608 
     51 H15         8.2188   -6.2328    6.8529 H         1 ALE         0.1658 
     52 H16         9.2614   -6.0084    9.0673 H         1 ALE         0.1465 
     53 H17         7.0763   -2.3479    9.7849 H         1 ALE         0.1453 
     54 H18         1.0043   -4.0939    1.4809 H         1 ALE         0.0325 
     55 H19         0.8813   -2.3603    1.0268 H         1 ALE         0.0325 
     56 H20         0.8454   -4.7666   -0.8673 H         1 ALE         0.0544 
     57 H21        -0.5302   -3.6821   -0.4696 H         1 ALE         0.0544 
     58 H22         0.5883   -1.7897   -1.5389 H         1 ALE         0.0176 
     59 H23         2.8565   -3.7567   -2.1842 H         1 ALE         0.0544 
     60 H24         2.7780   -2.0161   -2.6209 H         1 ALE         0.0544 
     61 H25         2.9245   -1.3636   -0.2905 H         1 ALE         0.0325 
     62 H26         4.2589   -2.5082   -0.6592 H         1 ALE         0.0325 
     63 H27        -1.4014   -3.9603   -2.0913 H         1 ALE         0.0409 
     64 H28        -1.4781   -2.2378   -2.5949 H         1 ALE         0.0409 
     65 H29        -1.4049   -4.6705   -4.4583 H         1 ALE         0.0539 
     66 H30        -2.8346   -3.6405   -4.1091 H         1 ALE         0.0539 
     67 H31         0.4245   -3.7562   -5.6468 H         1 ALE         0.0539 
     68 H32         0.3549   -2.0444   -6.1865 H         1 ALE         0.0539 
     69 H33         0.4332   -1.2819   -3.8449 H         1 ALE         0.0409 
     70 H34         1.8372   -2.3407   -4.2112 H         1 ALE         0.0409 
@<TRIPOS>BOND
     1    1    2 1    
     2    1   37 1    
     3    1   38 1    
     4    1   39 1    
     5    2    3 1    
     6    2   40 1    
     7    2   41 1    
     8    3    8 ar   
     9    3    4 ar   
    10    4    5 ar   
    11    4   25 1    
    12    5    6 ar   
    13    5   42 1    
    14    6   13 1    
    15    6    7 ar   
    16    7    8 ar   
    17    7    9 1    
    18    8   43 1    
    19    9   10 2    
    20    9   11 1    
    21   11   18 ar   
    22   11   12 ar   
    23   12   13 1    
    24   12   16 ar   
    25   13   14 1    
    26   13   15 1    
    27   14   44 1    
    28   14   45 1    
    29   14   46 1    
    30   15   47 1    
    31   15   48 1    
    32   15   49 1    
    33   16   17 ar   
    34   16   50 1    
    35   17   22 ar   
    36   17   18 ar   
    37   18   19 ar   
    38   19   20 ar   
    39   19   51 1    
    40   20   21 ar   
    41   20   52 1    
    42   21   22 ar   
    43   21   23 1    
    44   22   53 1    
    45   23   24 3    
    46   25   30 1    
    47   25   26 1    
    48   26   27 1    
    49   26   54 1    
    50   26   55 1    
    51   27   28 1    
    52   27   56 1    
    53   27   57 1    
    54   28   29 1    
    55   28   31 1    
    56   28   58 1    
    57   29   30 1    
    58   29   59 1    
    59   29   60 1    
    60   30   61 1    
    61   30   62 1    
    62   31   36 1    
    63   31   32 1    
    64   32   33 1    
    65   32   63 1    
    66   32   64 1    
    67   33   34 1    
    68   33   65 1    
    69   33   66 1    
    70   34   35 1    
    71   35   36 1    
    72   35   67 1    
    73   35   68 1    
    74   36   69 1    
    75   36   70 1    
@<TRIPOS>SUBSTRUCTURE
     1 ALE         1 GROUP             0       ****    0 ROOT    
