@<TRIPOS>MOLECULE
9-ethyl-6,6-dimethyl-8-(4-morpholino-1-piperidyl)-11-oxo-5~{H}-benzo[b]carbazole-3-carbonitrile
   70    75     0     0     0
SMALL
USER_CHARGES

@<TRIPOS>ATOM
      1 C1          3.1148   -6.7696    0.2606 C.3       1 ALE        -0.0869
      2 C2          4.2025   -5.7119    0.1533 C.3       1 ALE        -0.0310
      3 C3          4.2903   -4.8775    1.3897 C.ar      1 ALE        -0.0809
      4 C4          3.5455   -3.7125    1.5256 C.ar      1 ALE         0.1874
      5 C5          3.6461   -2.9505    2.6909 C.ar      1 ALE        -0.1638
      6 C6          4.4935   -3.3338    3.7503 C.ar      1 ALE        -0.0335
      7 C7          5.2445   -4.5239    3.5933 C.ar      1 ALE        -0.1583
      8 C8          5.1375   -5.2843    2.4178 C.ar      1 ALE        -0.0767
      9 C9          6.1717   -5.0203    4.6536 C.2       1 ALE         0.6202
     10 O1          6.8136   -6.0515    4.4985 O.2       1 ALE        -0.5481
     11 C10         6.2652   -4.2244    5.8555 C.2       1 ALE        -0.2245
     12 C11         5.5358   -3.0673    6.0092 C.2       1 ALE         0.1333
     13 C12         4.5732   -2.4610    5.0211 C.3       1 ALE         0.0427
     14 C13         5.0671   -1.0460    4.6475 C.3       1 ALE        -0.0887
     15 C14         3.1764   -2.3703    5.6756 C.3       1 ALE        -0.0887
     16 N1          5.8335   -2.5410    7.2392 N.pl3     1 ALE        -0.5641
     17 C15         6.7461   -3.3404    7.8888 C.ar      1 ALE         0.0600
     18 C16         7.0384   -4.4112    7.0397 C.ar      1 ALE        -0.0238
     19 C17         7.9601   -5.3844    7.4798 C.ar      1 ALE        -0.0833
     20 C18         8.5503   -5.2516    8.7421 C.ar      1 ALE        -0.1132
     21 C19         8.2375   -4.1725    9.5649 C.ar      1 ALE        -0.0085
     22 C20         7.3282   -3.1949    9.1533 C.ar      1 ALE        -0.0993
     23 C21         8.8552   -4.0608   10.8495 C.1       1 ALE         0.2359
     24 N2          9.3569   -3.9700   11.8926 N.1       1 ALE        -0.3689
     25 N3          2.7017   -3.2942    0.5212 N.pl3     1 ALE        -0.7592
     26 C22         1.2468   -3.3479    0.7096 C.3       1 ALE         0.2425
     27 C23         0.5608   -3.7389   -0.5969 C.3       1 ALE        -0.0915
     28 C24         0.9701   -2.8024   -1.7356 C.3       1 ALE         0.1930
     29 C25         2.4932   -2.7675   -1.8695 C.3       1 ALE        -0.0915
     30 C26         3.1696   -2.4050   -0.5469 C.3       1 ALE         0.2425
     31 N4          0.3499   -3.2100   -2.9945 N.3       1 ALE        -0.7228
     32 C27        -1.1140   -3.2385   -2.8698 C.3       1 ALE         0.1289
     33 C28        -1.7386   -3.6548   -4.1984 C.3       1 ALE         0.1258
     34 O2         -1.3445   -2.7564   -5.2362 O.3       1 ALE        -0.4162
     35 C29         0.0757   -2.7462   -5.3864 C.3       1 ALE         0.1258
     36 C30         0.7447   -2.3090   -4.0863 C.3       1 ALE         0.1289
     37 H1          3.0585   -7.3755   -0.6501 H         1 ALE         0.0369
     38 H2          2.1401   -6.2957    0.4133 H         1 ALE         0.0369
     39 H3          3.2993   -7.4452    1.1027 H         1 ALE         0.0369
     40 H4          4.0091   -5.0683   -0.7135 H         1 ALE         0.0518
     41 H5          5.1697   -6.1930   -0.0369 H         1 ALE         0.0518
     42 H6          3.0515   -2.0426    2.7722 H         1 ALE         0.1369
     43 H7          5.7128   -6.1992    2.2931 H         1 ALE         0.1613
     44 H8          4.3764   -0.6084    3.9372 H         1 ALE         0.0467
     45 H9          6.0529   -1.1228    4.2058 H         1 ALE         0.0467
     46 H10         5.1093   -0.4400    5.5442 H         1 ALE         0.0467
     47 H11         2.4838   -1.9347    4.9663 H         1 ALE         0.0467
     48 H12         3.2423   -1.7478    6.5591 H         1 ALE         0.0467
     49 H13         2.8506   -3.3666    5.9476 H         1 ALE         0.0467
     50 H14         5.4408   -1.6907    7.6189 H         1 ALE         0.4606
     51 H15         8.2176   -6.2338    6.8535 H         1 ALE         0.1655
     52 H16         9.2599   -6.0095    9.0681 H         1 ALE         0.1464
     53 H17         7.0755   -2.3485    9.7852 H         1 ALE         0.1451
     54 H18         0.9954   -4.0575    1.5123 H         1 ALE         0.0325
     55 H19         0.8660   -2.3644    1.0240 H         1 ALE         0.0325
     56 H20         0.7911   -4.7754   -0.8440 H         1 ALE         0.0542
     57 H21        -0.5209   -3.6696   -0.4627 H         1 ALE         0.0542
     58 H22         0.6183   -1.7937   -1.5006 H         1 ALE         0.0176
     59 H23         2.8765   -3.7250   -2.2327 H         1 ALE         0.0542
     60 H24         2.7596   -2.0140   -2.6183 H         1 ALE         0.0542
     61 H25         4.2636   -2.4661   -0.6398 H         1 ALE         0.0325
     62 H26         2.9276   -1.3590   -0.3084 H         1 ALE         0.0325
     63 H27        -1.4164   -3.9535   -2.0955 H         1 ALE         0.0414
     64 H28        -1.4914   -2.2477   -2.5833 H         1 ALE         0.0414
     65 H29        -1.4587   -4.6788   -4.4751 H         1 ALE         0.0540
     66 H30        -2.8302   -3.6191   -4.1248 H         1 ALE         0.0540
     67 H31         0.4177   -3.7390   -5.7028 H         1 ALE         0.0540
     68 H32         0.3212   -2.0404   -6.1865 H         1 ALE         0.0540
     69 H33         1.8326   -2.3283   -4.2211 H         1 ALE         0.0414
     70 H34         0.4497   -1.2770   -3.8536 H         1 ALE         0.0414
@<TRIPOS>BOND
     1    1    2 1
     2    2    3 1
     3    3    8 ar
     4    3    4 ar
     5    4    5 ar
     6    5    6 ar
     7    6   13 1
     8    6    7 ar
     9    7    8 ar
    10    7    9 1
    11    9   10 2
    12    9   11 1
    13   11   18 1
    14   11   12 2
    15   12   13 1
    16   13   14 1
    17   13   15 1
    18   12   16 1
    19   16   17 1
    20   17   22 ar
    21   17   18 ar
    22   18   19 ar
    23   19   20 ar
    24   20   21 ar
    25   21   22 ar
    26   21   23 1
    27   23   24 3
    28    4   25 1
    29   25   30 1
    30   25   26 1
    31   26   27 1
    32   27   28 1
    33   28   29 1
    34   29   30 1
    35   28   31 1
    36   31   36 1
    37   31   32 1
    38   32   33 1
    39   33   34 1
    40   34   35 1
    41   35   36 1
    42    1   37 1
    43    1   38 1
    44    1   39 1
    45    2   40 1
    46    2   41 1
    47    5   42 1
    48    8   43 1
    49   14   44 1
    50   14   45 1
    51   14   46 1
    52   15   47 1
    53   15   48 1
    54   15   49 1
    55   16   50 1
    56   19   51 1
    57   20   52 1
    58   22   53 1
    59   26   54 1
    60   26   55 1
    61   27   56 1
    62   27   57 1
    63   28   58 1
    64   29   59 1
    65   29   60 1
    66   30   61 1
    67   30   62 1
    68   32   63 1
    69   32   64 1
    70   33   65 1
    71   33   66 1
    72   35   67 1
    73   35   68 1
    74   36   69 1
    75   36   70 1
