9-ethyl-6,6-dimethyl-8-(4-morpholino-1-piperidyl)-11-oxo-5~{H}-benzo[b]carbazole-3-carbonitrile
                    3D
 Structure written by MMmdl.
 70 75  0  0  1  0            999 V2000
    3.1148   -6.7696    0.2606 C   0  0  0  0  0  0
    4.2025   -5.7119    0.1533 C   0  0  0  0  0  0
    4.2903   -4.8775    1.3897 C   0  0  0  0  0  0
    3.5455   -3.7125    1.5256 C   0  0  0  0  0  0
    3.6461   -2.9505    2.6909 C   0  0  0  0  0  0
    4.4935   -3.3338    3.7503 C   0  0  0  0  0  0
    5.2445   -4.5239    3.5933 C   0  0  0  0  0  0
    5.1375   -5.2843    2.4178 C   0  0  0  0  0  0
    6.1717   -5.0203    4.6536 C   0  0  0  0  0  0
    6.8136   -6.0515    4.4985 O   0  0  0  0  0  0
    6.2652   -4.2244    5.8555 C   0  0  0  0  0  0
    5.5358   -3.0673    6.0092 C   0  0  0  0  0  0
    4.5732   -2.4610    5.0211 C   0  0  0  0  0  0
    5.0671   -1.0460    4.6475 C   0  0  0  0  0  0
    3.1764   -2.3703    5.6756 C   0  0  0  0  0  0
    5.8335   -2.5410    7.2392 N   0  0  0  0  0  0
    6.7461   -3.3404    7.8888 C   0  0  0  0  0  0
    7.0384   -4.4112    7.0397 C   0  0  0  0  0  0
    7.9601   -5.3844    7.4798 C   0  0  0  0  0  0
    8.5503   -5.2516    8.7421 C   0  0  0  0  0  0
    8.2375   -4.1725    9.5649 C   0  0  0  0  0  0
    7.3282   -3.1949    9.1533 C   0  0  0  0  0  0
    8.8552   -4.0608   10.8495 C   0  0  0  0  0  0
    9.3569   -3.9700   11.8926 N   0  0  0  0  0  0
    2.7017   -3.2942    0.5212 N   0  0  0  0  0  0
    1.2468   -3.3479    0.7096 C   0  0  0  0  0  0
    0.5608   -3.7389   -0.5969 C   0  0  0  0  0  0
    0.9701   -2.8024   -1.7356 C   0  0  0  0  0  0
    2.4932   -2.7675   -1.8695 C   0  0  0  0  0  0
    3.1696   -2.4050   -0.5469 C   0  0  0  0  0  0
    0.3499   -3.2100   -2.9945 N   0  0  0  0  0  0
   -1.1140   -3.2385   -2.8698 C   0  0  0  0  0  0
   -1.7386   -3.6548   -4.1984 C   0  0  0  0  0  0
   -1.3445   -2.7564   -5.2362 O   0  0  0  0  0  0
    0.0757   -2.7462   -5.3864 C   0  0  0  0  0  0
    0.7447   -2.3090   -4.0863 C   0  0  0  0  0  0
    3.0842   -7.3595   -0.6674 H   0  0  0  0  0  0
    2.1419   -6.2805    0.4165 H   0  0  0  0  0  0
    3.3317   -7.4337    1.1103 H   0  0  0  0  0  0
    5.1754   -6.2010   -0.0026 H   0  0  0  0  0  0
    3.9856   -5.0478   -0.6964 H   0  0  0  0  0  0
    3.0515   -2.0426    2.7722 H   0  0  0  0  0  0
    5.7128   -6.1992    2.2931 H   0  0  0  0  0  0
    5.1231   -0.4259    5.5543 H   0  0  0  0  0  0
    4.3656   -0.5894    3.9338 H   0  0  0  0  0  0
    6.0643   -1.1151    4.1883 H   0  0  0  0  0  0
    3.2353   -1.7481    6.5808 H   0  0  0  0  0  0
    2.8320   -3.3794    5.9461 H   0  0  0  0  0  0
    2.4675   -1.9189    4.9658 H   0  0  0  0  0  0
    5.3560   -1.6061    7.5676 H   0  0  0  0  0  0
    8.2176   -6.2338    6.8535 H   0  0  0  0  0  0
    9.2599   -6.0095    9.0681 H   0  0  0  0  0  0
    7.0755   -2.3485    9.7852 H   0  0  0  0  0  0
    1.0043   -4.0936    1.4811 H   0  0  0  0  0  0
    0.8814   -2.3600    1.0268 H   0  0  0  0  0  0
    0.8452   -4.7666   -0.8671 H   0  0  0  0  0  0
   -0.5303   -3.6819   -0.4695 H   0  0  0  0  0  0
    0.5883   -1.7897   -1.5390 H   0  0  0  0  0  0
    2.8564   -3.7570   -2.1840 H   0  0  0  0  0  0
    2.7781   -2.0165   -2.6210 H   0  0  0  0  0  0
    2.9247   -1.3637   -0.2907 H   0  0  0  0  0  0
    4.2589   -2.5085   -0.6593 H   0  0  0  0  0  0
   -1.4017   -3.9601   -2.0910 H   0  0  0  0  0  0
   -1.4781   -2.2376   -2.5948 H   0  0  0  0  0  0
   -1.4054   -4.6705   -4.4579 H   0  0  0  0  0  0
   -2.8348   -3.6402   -4.1088 H   0  0  0  0  0  0
    0.4241   -3.7566   -5.6465 H   0  0  0  0  0  0
    0.3548   -2.0448   -6.1865 H   0  0  0  0  0  0
    0.4332   -1.2820   -3.8449 H   0  0  0  0  0  0
    1.8371   -2.3410   -4.2112 H   0  0  0  0  0  0
  1  2  1  0  0  0
  1 37  1  0  0  0
  1 38  1  0  0  0
  1 39  1  0  0  0
  2  3  1  0  0  0
  2 40  1  0  0  0
  2 41  1  0  0  0
  3  8  2  0  0  0
  3  4  1  0  0  0
  4  5  2  0  0  0
  4 25  1  0  0  0
  5  6  1  0  0  0
  5 42  1  0  0  0
  6 13  1  0  0  0
  6  7  2  0  0  0
  7  8  1  0  0  0
  7  9  1  0  0  0
  8 43  1  0  0  0
  9 10  2  0  0  0
  9 11  1  0  0  0
 11 18  1  0  0  0
 11 12  2  0  0  0
 12 13  1  0  0  0
 12 16  1  0  0  0
 13 14  1  0  0  0
 13 15  1  0  0  0
 14 44  1  0  0  0
 14 45  1  0  0  0
 14 46  1  0  0  0
 15 47  1  0  0  0
 15 48  1  0  0  0
 15 49  1  0  0  0
 16 17  1  0  0  0
 16 50  1  0  0  0
 17 22  2  0  0  0
 17 18  1  0  0  0
 18 19  2  0  0  0
 19 20  1  0  0  0
 19 51  1  0  0  0
 20 21  2  0  0  0
 20 52  1  0  0  0
 21 22  1  0  0  0
 21 23  1  0  0  0
 22 53  1  0  0  0
 23 24  3  0  0  0
 25 30  1  0  0  0
 25 26  1  0  0  0
 26 27  1  0  0  0
 26 54  1  0  0  0
 26 55  1  0  0  0
 27 28  1  0  0  0
 27 56  1  0  0  0
 27 57  1  0  0  0
 28 29  1  0  0  0
 28 31  1  0  0  0
 28 58  1  0  0  0
 29 30  1  0  0  0
 29 59  1  0  0  0
 29 60  1  0  0  0
 30 61  1  0  0  0
 30 62  1  0  0  0
 31 36  1  0  0  0
 31 32  1  0  0  0
 32 33  1  0  0  0
 32 63  1  0  0  0
 32 64  1  0  0  0
 33 34  1  0  0  0
 33 65  1  0  0  0
 33 66  1  0  0  0
 34 35  1  0  0  0
 35 36  1  0  0  0
 35 67  1  0  0  0
 35 68  1  0  0  0
 36 69  1  0  0  0
 36 70  1  0  0  0
M  END
> <s_m_source_file>
/Users/andrea/Development/mcce-charges/epik_inhibitors/output/Alectinib/Alectinib-input.mol2

> <i_m_source_file_index>
1

> <r_epik_Ionization_Penalty>
  0.4828

> <r_epik_Ionization_Penalty_Charging>
  0.0000

> <r_epik_Ionization_Penalty_Neutral>
  0.4828

> <r_epik_State_Penalty>
  0.2146

> <i_epik_Tot_Q>
0

$$$$
9-ethyl-6,6-dimethyl-8-(4-morpholino-1-piperidyl)-11-oxo-5~{H}-benzo[b]carbazole-3-carbonitrile
                    3D
 Structure written by MMmdl.
 71 76  0  0  1  0            999 V2000
    3.1148   -6.7696    0.2606 C   0  0  0  0  0  0
    4.2025   -5.7119    0.1533 C   0  0  0  0  0  0
    4.2903   -4.8775    1.3897 C   0  0  0  0  0  0
    3.5455   -3.7125    1.5256 C   0  0  0  0  0  0
    3.6461   -2.9505    2.6909 C   0  0  0  0  0  0
    4.4935   -3.3338    3.7503 C   0  0  0  0  0  0
    5.2445   -4.5239    3.5933 C   0  0  0  0  0  0
    5.1375   -5.2843    2.4178 C   0  0  0  0  0  0
    6.1717   -5.0203    4.6536 C   0  0  0  0  0  0
    6.8136   -6.0515    4.4985 O   0  0  0  0  0  0
    6.2652   -4.2244    5.8555 C   0  0  0  0  0  0
    5.5358   -3.0673    6.0092 C   0  0  0  0  0  0
    4.5732   -2.4610    5.0211 C   0  0  0  0  0  0
    5.0671   -1.0460    4.6475 C   0  0  0  0  0  0
    3.1764   -2.3703    5.6756 C   0  0  0  0  0  0
    5.8335   -2.5410    7.2392 N   0  0  0  0  0  0
    6.7461   -3.3404    7.8888 C   0  0  0  0  0  0
    7.0384   -4.4112    7.0397 C   0  0  0  0  0  0
    7.9601   -5.3844    7.4798 C   0  0  0  0  0  0
    8.5503   -5.2516    8.7421 C   0  0  0  0  0  0
    8.2375   -4.1725    9.5649 C   0  0  0  0  0  0
    7.3282   -3.1949    9.1533 C   0  0  0  0  0  0
    8.8552   -4.0608   10.8495 C   0  0  0  0  0  0
    9.3569   -3.9700   11.8926 N   0  0  0  0  0  0
    2.7017   -3.2942    0.5212 N   0  0  0  0  0  0
    1.2468   -3.3479    0.7096 C   0  0  0  0  0  0
    0.5608   -3.7389   -0.5969 C   0  0  0  0  0  0
    0.9701   -2.8024   -1.7356 C   0  0  0  0  0  0
    2.4932   -2.7675   -1.8695 C   0  0  0  0  0  0
    3.1696   -2.4050   -0.5469 C   0  0  0  0  0  0
    0.3499   -3.2100   -2.9945 N   0  3  0  0  0  0
   -1.1140   -3.2385   -2.8698 C   0  0  0  0  0  0
   -1.7386   -3.6548   -4.1984 C   0  0  0  0  0  0
   -1.3445   -2.7564   -5.2362 O   0  0  0  0  0  0
    0.0757   -2.7462   -5.3864 C   0  0  0  0  0  0
    0.7447   -2.3090   -4.0863 C   0  0  0  0  0  0
    3.0842   -7.3595   -0.6674 H   0  0  0  0  0  0
    2.1419   -6.2805    0.4165 H   0  0  0  0  0  0
    3.3317   -7.4337    1.1103 H   0  0  0  0  0  0
    5.1754   -6.2010   -0.0026 H   0  0  0  0  0  0
    3.9856   -5.0478   -0.6964 H   0  0  0  0  0  0
    3.0515   -2.0426    2.7722 H   0  0  0  0  0  0
    5.7128   -6.1992    2.2931 H   0  0  0  0  0  0
    5.1231   -0.4259    5.5543 H   0  0  0  0  0  0
    4.3656   -0.5894    3.9338 H   0  0  0  0  0  0
    6.0643   -1.1151    4.1883 H   0  0  0  0  0  0
    3.2353   -1.7481    6.5808 H   0  0  0  0  0  0
    2.8320   -3.3794    5.9461 H   0  0  0  0  0  0
    2.4675   -1.9189    4.9658 H   0  0  0  0  0  0
    5.3560   -1.6061    7.5676 H   0  0  0  0  0  0
    8.2176   -6.2338    6.8535 H   0  0  0  0  0  0
    9.2599   -6.0095    9.0681 H   0  0  0  0  0  0
    7.0755   -2.3485    9.7852 H   0  0  0  0  0  0
    1.0043   -4.0936    1.4811 H   0  0  0  0  0  0
    0.8814   -2.3600    1.0268 H   0  0  0  0  0  0
    0.8452   -4.7666   -0.8671 H   0  0  0  0  0  0
   -0.5303   -3.6819   -0.4695 H   0  0  0  0  0  0
    0.5883   -1.7897   -1.5390 H   0  0  0  0  0  0
    2.8564   -3.7570   -2.1840 H   0  0  0  0  0  0
    2.7781   -2.0165   -2.6210 H   0  0  0  0  0  0
    2.9247   -1.3637   -0.2907 H   0  0  0  0  0  0
    4.2589   -2.5085   -0.6593 H   0  0  0  0  0  0
   -1.4017   -3.9601   -2.0910 H   0  0  0  0  0  0
   -1.4781   -2.2376   -2.5948 H   0  0  0  0  0  0
   -1.4054   -4.6705   -4.4579 H   0  0  0  0  0  0
   -2.8348   -3.6402   -4.1088 H   0  0  0  0  0  0
    0.4241   -3.7566   -5.6465 H   0  0  0  0  0  0
    0.3548   -2.0448   -6.1865 H   0  0  0  0  0  0
    0.4332   -1.2820   -3.8449 H   0  0  0  0  0  0
    1.8371   -2.3410   -4.2112 H   0  0  0  0  0  0
    0.7058   -4.2248   -3.2258 H   0  0  0  0  0  0
  1  2  1  0  0  0
  1 37  1  0  0  0
  1 38  1  0  0  0
  1 39  1  0  0  0
  2  3  1  0  0  0
  2 40  1  0  0  0
  2 41  1  0  0  0
  3  8  2  0  0  0
  3  4  1  0  0  0
  4  5  2  0  0  0
  4 25  1  0  0  0
  5  6  1  0  0  0
  5 42  1  0  0  0
  6 13  1  0  0  0
  6  7  2  0  0  0
  7  8  1  0  0  0
  7  9  1  0  0  0
  8 43  1  0  0  0
  9 10  2  0  0  0
  9 11  1  0  0  0
 11 18  1  0  0  0
 11 12  2  0  0  0
 12 13  1  0  0  0
 12 16  1  0  0  0
 13 14  1  0  0  0
 13 15  1  0  0  0
 14 44  1  0  0  0
 14 45  1  0  0  0
 14 46  1  0  0  0
 15 47  1  0  0  0
 15 48  1  0  0  0
 15 49  1  0  0  0
 16 17  1  0  0  0
 16 50  1  0  0  0
 17 22  2  0  0  0
 17 18  1  0  0  0
 18 19  2  0  0  0
 19 20  1  0  0  0
 19 51  1  0  0  0
 20 21  2  0  0  0
 20 52  1  0  0  0
 21 22  1  0  0  0
 21 23  1  0  0  0
 22 53  1  0  0  0
 23 24  3  0  0  0
 25 30  1  0  0  0
 25 26  1  0  0  0
 26 27  1  0  0  0
 26 54  1  0  0  0
 26 55  1  0  0  0
 27 28  1  0  0  0
 27 56  1  0  0  0
 27 57  1  0  0  0
 28 29  1  0  0  0
 28 31  1  0  0  0
 28 58  1  0  0  0
 29 30  1  0  0  0
 29 59  1  0  0  0
 29 60  1  0  0  0
 30 61  1  0  0  0
 30 62  1  0  0  0
 31 36  1  0  0  0
 31 32  1  0  0  0
 31 71  1  0  0  0
 32 33  1  0  0  0
 32 63  1  0  0  0
 32 64  1  0  0  0
 33 34  1  0  0  0
 33 65  1  0  0  0
 33 66  1  0  0  0
 34 35  1  0  0  0
 35 36  1  0  0  0
 35 67  1  0  0  0
 35 68  1  0  0  0
 36 69  1  0  0  0
 36 70  1  0  0  0
M  CHG  1  31   1
M  END
> <s_m_source_file>
/Users/andrea/Development/mcce-charges/epik_inhibitors/output/Alectinib/Alectinib-input.mol2

> <i_m_source_file_index>
1

> <r_epik_Ionization_Penalty>
  0.3464

> <r_epik_Ionization_Penalty_Charging>
  0.3464

> <r_epik_Ionization_Penalty_Neutral>
  0.0000

> <r_epik_State_Penalty>
  0.7058

> <i_epik_Tot_Q>
1

$$$$
9-ethyl-6,6-dimethyl-8-(4-morpholino-1-piperidyl)-11-oxo-5~{H}-benzo[b]carbazole-3-carbonitrile
                    3D
 Structure written by MMmdl.
 71 76  0  0  1  0            999 V2000
    3.1148   -6.7696    0.2606 C   0  0  0  0  0  0
    4.2025   -5.7119    0.1533 C   0  0  0  0  0  0
    4.2903   -4.8775    1.3897 C   0  0  0  0  0  0
    3.5455   -3.7125    1.5256 C   0  0  0  0  0  0
    3.6461   -2.9505    2.6909 C   0  0  0  0  0  0
    4.4935   -3.3338    3.7503 C   0  0  0  0  0  0
    5.2445   -4.5239    3.5933 C   0  0  0  0  0  0
    5.1375   -5.2843    2.4178 C   0  0  0  0  0  0
    6.1717   -5.0203    4.6536 C   0  0  0  0  0  0
    6.8136   -6.0515    4.4985 O   0  0  0  0  0  0
    6.2652   -4.2244    5.8555 C   0  0  0  0  0  0
    5.5358   -3.0673    6.0092 C   0  0  0  0  0  0
    4.5732   -2.4610    5.0211 C   0  0  0  0  0  0
    5.0671   -1.0460    4.6475 C   0  0  0  0  0  0
    3.1764   -2.3703    5.6756 C   0  0  0  0  0  0
    5.8335   -2.5410    7.2392 N   0  0  0  0  0  0
    6.7461   -3.3404    7.8888 C   0  0  0  0  0  0
    7.0384   -4.4112    7.0397 C   0  0  0  0  0  0
    7.9601   -5.3844    7.4798 C   0  0  0  0  0  0
    8.5503   -5.2516    8.7421 C   0  0  0  0  0  0
    8.2375   -4.1725    9.5649 C   0  0  0  0  0  0
    7.3282   -3.1949    9.1533 C   0  0  0  0  0  0
    8.8552   -4.0608   10.8495 C   0  0  0  0  0  0
    9.3569   -3.9700   11.8926 N   0  0  0  0  0  0
    2.7017   -3.2942    0.5212 N   0  3  1  0  0  0
    1.2468   -3.3479    0.7096 C   0  0  0  0  0  0
    0.5608   -3.7389   -0.5969 C   0  0  0  0  0  0
    0.9701   -2.8024   -1.7356 C   0  0  1  0  0  0
    2.4932   -2.7675   -1.8695 C   0  0  0  0  0  0
    3.1696   -2.4050   -0.5469 C   0  0  0  0  0  0
    0.3499   -3.2100   -2.9945 N   0  0  0  0  0  0
   -1.1140   -3.2385   -2.8698 C   0  0  0  0  0  0
   -1.7386   -3.6548   -4.1984 C   0  0  0  0  0  0
   -1.3445   -2.7564   -5.2362 O   0  0  0  0  0  0
    0.0757   -2.7462   -5.3864 C   0  0  0  0  0  0
    0.7447   -2.3090   -4.0863 C   0  0  0  0  0  0
    3.0842   -7.3595   -0.6674 H   0  0  0  0  0  0
    2.1419   -6.2805    0.4165 H   0  0  0  0  0  0
    3.3317   -7.4337    1.1103 H   0  0  0  0  0  0
    5.1754   -6.2010   -0.0026 H   0  0  0  0  0  0
    3.9856   -5.0478   -0.6964 H   0  0  0  0  0  0
    3.0515   -2.0426    2.7722 H   0  0  0  0  0  0
    5.7128   -6.1992    2.2931 H   0  0  0  0  0  0
    5.1231   -0.4259    5.5543 H   0  0  0  0  0  0
    4.3656   -0.5894    3.9338 H   0  0  0  0  0  0
    6.0643   -1.1151    4.1883 H   0  0  0  0  0  0
    3.2353   -1.7481    6.5808 H   0  0  0  0  0  0
    2.8320   -3.3794    5.9461 H   0  0  0  0  0  0
    2.4675   -1.9189    4.9658 H   0  0  0  0  0  0
    5.3560   -1.6061    7.5676 H   0  0  0  0  0  0
    8.2176   -6.2338    6.8535 H   0  0  0  0  0  0
    9.2599   -6.0095    9.0681 H   0  0  0  0  0  0
    7.0755   -2.3485    9.7852 H   0  0  0  0  0  0
    1.0043   -4.0936    1.4811 H   0  0  0  0  0  0
    0.8814   -2.3600    1.0268 H   0  0  0  0  0  0
    0.8452   -4.7666   -0.8671 H   0  0  0  0  0  0
   -0.5303   -3.6819   -0.4695 H   0  0  0  0  0  0
    0.5883   -1.7897   -1.5390 H   0  0  0  0  0  0
    2.8564   -3.7570   -2.1840 H   0  0  0  0  0  0
    2.7781   -2.0165   -2.6210 H   0  0  0  0  0  0
    2.9247   -1.3637   -0.2907 H   0  0  0  0  0  0
    4.2589   -2.5085   -0.6593 H   0  0  0  0  0  0
   -1.4017   -3.9601   -2.0910 H   0  0  0  0  0  0
   -1.4781   -2.2376   -2.5948 H   0  0  0  0  0  0
   -1.4054   -4.6705   -4.4579 H   0  0  0  0  0  0
   -2.8348   -3.6402   -4.1088 H   0  0  0  0  0  0
    0.4241   -3.7566   -5.6465 H   0  0  0  0  0  0
    0.3548   -2.0448   -6.1865 H   0  0  0  0  0  0
    0.4332   -1.2820   -3.8449 H   0  0  0  0  0  0
    1.8371   -2.3410   -4.2112 H   0  0  0  0  0  0
    3.0453   -4.2954    0.2220 H   0  0  0  0  0  0
  1  2  1  0  0  0
  1 37  1  0  0  0
  1 38  1  0  0  0
  1 39  1  0  0  0
  2  3  1  0  0  0
  2 40  1  0  0  0
  2 41  1  0  0  0
  3  8  2  0  0  0
  3  4  1  0  0  0
  4  5  2  0  0  0
  4 25  1  0  0  0
  5  6  1  0  0  0
  5 42  1  0  0  0
  6 13  1  0  0  0
  6  7  2  0  0  0
  7  8  1  0  0  0
  7  9  1  0  0  0
  8 43  1  0  0  0
  9 10  2  0  0  0
  9 11  1  0  0  0
 11 18  1  0  0  0
 11 12  2  0  0  0
 12 13  1  0  0  0
 12 16  1  0  0  0
 13 14  1  0  0  0
 13 15  1  0  0  0
 14 44  1  0  0  0
 14 45  1  0  0  0
 14 46  1  0  0  0
 15 47  1  0  0  0
 15 48  1  0  0  0
 15 49  1  0  0  0
 16 17  1  0  0  0
 16 50  1  0  0  0
 17 22  2  0  0  0
 17 18  1  0  0  0
 18 19  2  0  0  0
 19 20  1  0  0  0
 19 51  1  0  0  0
 20 21  2  0  0  0
 20 52  1  0  0  0
 21 22  1  0  0  0
 21 23  1  0  0  0
 22 53  1  0  0  0
 23 24  3  0  0  0
 25 30  1  0  0  0
 25 26  1  0  0  0
 25 71  1  0  0  0
 26 27  1  0  0  0
 26 54  1  0  0  0
 26 55  1  0  0  0
 27 28  1  0  0  0
 27 56  1  0  0  0
 27 57  1  0  0  0
 28 29  1  0  0  0
 28 31  1  0  0  0
 28 58  1  0  0  0
 29 30  1  0  0  0
 29 59  1  0  0  0
 29 60  1  0  0  0
 30 61  1  0  0  0
 30 62  1  0  0  0
 31 36  1  0  0  0
 31 32  1  0  0  0
 32 33  1  0  0  0
 32 63  1  0  0  0
 32 64  1  0  0  0
 33 34  1  0  0  0
 33 65  1  0  0  0
 33 66  1  0  0  0
 34 35  1  0  0  0
 35 36  1  0  0  0
 35 67  1  0  0  0
 35 68  1  0  0  0
 36 69  1  0  0  0
 36 70  1  0  0  0
M  CHG  1  25   1
M  END
> <s_m_source_file>
/Users/andrea/Development/mcce-charges/epik_inhibitors/output/Alectinib/Alectinib-input.mol2

> <i_m_source_file_index>
1

> <r_epik_Ionization_Penalty>
  7.5089

> <r_epik_Ionization_Penalty_Charging>
  7.5025

> <r_epik_Ionization_Penalty_Neutral>
  0.0064

> <r_epik_State_Penalty>
  7.3713

> <i_epik_Tot_Q>
1

$$$$
9-ethyl-6,6-dimethyl-8-(4-morpholino-1-piperidyl)-11-oxo-5~{H}-benzo[b]carbazole-3-carbonitrile
                    3D
 Structure written by MMmdl.
 69 74  0  0  1  0            999 V2000
    3.1148   -6.7696    0.2606 C   0  0  0  0  0  0
    4.2025   -5.7119    0.1533 C   0  0  0  0  0  0
    4.2903   -4.8775    1.3897 C   0  0  0  0  0  0
    3.5455   -3.7125    1.5256 C   0  0  0  0  0  0
    3.6461   -2.9505    2.6909 C   0  0  0  0  0  0
    4.4935   -3.3338    3.7503 C   0  0  0  0  0  0
    5.2445   -4.5239    3.5933 C   0  0  0  0  0  0
    5.1375   -5.2843    2.4178 C   0  0  0  0  0  0
    6.1717   -5.0203    4.6536 C   0  0  0  0  0  0
    6.8136   -6.0515    4.4985 O   0  0  0  0  0  0
    6.2652   -4.2244    5.8555 C   0  0  0  0  0  0
    5.5358   -3.0673    6.0092 C   0  0  0  0  0  0
    4.5732   -2.4610    5.0211 C   0  0  0  0  0  0
    5.0671   -1.0460    4.6475 C   0  0  0  0  0  0
    3.1764   -2.3703    5.6756 C   0  0  0  0  0  0
    5.8335   -2.5410    7.2392 N   0  5  0  0  0  0
    6.7461   -3.3404    7.8888 C   0  0  0  0  0  0
    7.0384   -4.4112    7.0397 C   0  0  0  0  0  0
    7.9601   -5.3844    7.4798 C   0  0  0  0  0  0
    8.5503   -5.2516    8.7421 C   0  0  0  0  0  0
    8.2375   -4.1725    9.5649 C   0  0  0  0  0  0
    7.3282   -3.1949    9.1533 C   0  0  0  0  0  0
    8.8552   -4.0608   10.8495 C   0  0  0  0  0  0
    9.3569   -3.9700   11.8926 N   0  0  0  0  0  0
    2.7017   -3.2942    0.5212 N   0  0  0  0  0  0
    1.2468   -3.3479    0.7096 C   0  0  0  0  0  0
    0.5608   -3.7389   -0.5969 C   0  0  0  0  0  0
    0.9701   -2.8024   -1.7356 C   0  0  0  0  0  0
    2.4932   -2.7675   -1.8695 C   0  0  0  0  0  0
    3.1696   -2.4050   -0.5469 C   0  0  0  0  0  0
    0.3499   -3.2100   -2.9945 N   0  0  0  0  0  0
   -1.1140   -3.2385   -2.8698 C   0  0  0  0  0  0
   -1.7386   -3.6548   -4.1984 C   0  0  0  0  0  0
   -1.3445   -2.7564   -5.2362 O   0  0  0  0  0  0
    0.0757   -2.7462   -5.3864 C   0  0  0  0  0  0
    0.7447   -2.3090   -4.0863 C   0  0  0  0  0  0
    3.0842   -7.3595   -0.6674 H   0  0  0  0  0  0
    2.1419   -6.2805    0.4165 H   0  0  0  0  0  0
    3.3317   -7.4337    1.1103 H   0  0  0  0  0  0
    5.1754   -6.2010   -0.0026 H   0  0  0  0  0  0
    3.9856   -5.0478   -0.6964 H   0  0  0  0  0  0
    3.0515   -2.0426    2.7722 H   0  0  0  0  0  0
    5.7128   -6.1992    2.2931 H   0  0  0  0  0  0
    5.1231   -0.4259    5.5543 H   0  0  0  0  0  0
    4.3656   -0.5894    3.9338 H   0  0  0  0  0  0
    6.0643   -1.1151    4.1883 H   0  0  0  0  0  0
    3.2353   -1.7481    6.5808 H   0  0  0  0  0  0
    2.8320   -3.3794    5.9461 H   0  0  0  0  0  0
    2.4675   -1.9189    4.9658 H   0  0  0  0  0  0
    8.2176   -6.2338    6.8535 H   0  0  0  0  0  0
    9.2599   -6.0095    9.0681 H   0  0  0  0  0  0
    7.0755   -2.3485    9.7852 H   0  0  0  0  0  0
    1.0043   -4.0936    1.4811 H   0  0  0  0  0  0
    0.8814   -2.3600    1.0268 H   0  0  0  0  0  0
    0.8452   -4.7666   -0.8671 H   0  0  0  0  0  0
   -0.5303   -3.6819   -0.4695 H   0  0  0  0  0  0
    0.5883   -1.7897   -1.5390 H   0  0  0  0  0  0
    2.8564   -3.7570   -2.1840 H   0  0  0  0  0  0
    2.7781   -2.0165   -2.6210 H   0  0  0  0  0  0
    2.9247   -1.3637   -0.2907 H   0  0  0  0  0  0
    4.2589   -2.5085   -0.6593 H   0  0  0  0  0  0
   -1.4017   -3.9601   -2.0910 H   0  0  0  0  0  0
   -1.4781   -2.2376   -2.5948 H   0  0  0  0  0  0
   -1.4054   -4.6705   -4.4579 H   0  0  0  0  0  0
   -2.8348   -3.6402   -4.1088 H   0  0  0  0  0  0
    0.4241   -3.7566   -5.6465 H   0  0  0  0  0  0
    0.3548   -2.0448   -6.1865 H   0  0  0  0  0  0
    0.4332   -1.2820   -3.8449 H   0  0  0  0  0  0
    1.8371   -2.3410   -4.2112 H   0  0  0  0  0  0
  1  2  1  0  0  0
  1 37  1  0  0  0
  1 38  1  0  0  0
  1 39  1  0  0  0
  2  3  1  0  0  0
  2 40  1  0  0  0
  2 41  1  0  0  0
  3  8  2  0  0  0
  3  4  1  0  0  0
  4  5  2  0  0  0
  4 25  1  0  0  0
  5  6  1  0  0  0
  5 42  1  0  0  0
  6 13  1  0  0  0
  6  7  2  0  0  0
  7  8  1  0  0  0
  7  9  1  0  0  0
  8 43  1  0  0  0
  9 10  2  0  0  0
  9 11  1  0  0  0
 11 18  1  0  0  0
 11 12  2  0  0  0
 12 13  1  0  0  0
 12 16  1  0  0  0
 13 14  1  0  0  0
 13 15  1  0  0  0
 14 44  1  0  0  0
 14 45  1  0  0  0
 14 46  1  0  0  0
 15 47  1  0  0  0
 15 48  1  0  0  0
 15 49  1  0  0  0
 16 17  1  0  0  0
 17 22  2  0  0  0
 17 18  1  0  0  0
 18 19  2  0  0  0
 19 20  1  0  0  0
 19 50  1  0  0  0
 20 21  2  0  0  0
 20 51  1  0  0  0
 21 22  1  0  0  0
 21 23  1  0  0  0
 22 52  1  0  0  0
 23 24  3  0  0  0
 25 30  1  0  0  0
 25 26  1  0  0  0
 26 27  1  0  0  0
 26 53  1  0  0  0
 26 54  1  0  0  0
 27 28  1  0  0  0
 27 55  1  0  0  0
 27 56  1  0  0  0
 28 29  1  0  0  0
 28 31  1  0  0  0
 28 57  1  0  0  0
 29 30  1  0  0  0
 29 58  1  0  0  0
 29 59  1  0  0  0
 30 60  1  0  0  0
 30 61  1  0  0  0
 31 36  1  0  0  0
 31 32  1  0  0  0
 32 33  1  0  0  0
 32 62  1  0  0  0
 32 63  1  0  0  0
 33 34  1  0  0  0
 33 64  1  0  0  0
 33 65  1  0  0  0
 34 35  1  0  0  0
 35 36  1  0  0  0
 35 66  1  0  0  0
 35 67  1  0  0  0
 36 68  1  0  0  0
 36 69  1  0  0  0
M  CHG  1  16  -1
M  END
> <s_m_source_file>
/Users/andrea/Development/mcce-charges/epik_inhibitors/output/Alectinib/Alectinib-input.mol2

> <i_m_source_file_index>
1

> <r_epik_Ionization_Penalty>
  8.0118

> <r_epik_Ionization_Penalty_Charging>
  7.5290

> <r_epik_Ionization_Penalty_Neutral>
  0.4828

> <r_epik_State_Penalty>
  8.4609

> <i_epik_Tot_Q>
-1

$$$$
9-ethyl-6,6-dimethyl-8-(4-morpholino-1-piperidyl)-11-oxo-5~{H}-benzo[b]carbazole-3-carbonitrile
                    3D
 Structure written by MMmdl.
 70 75  0  0  1  0            999 V2000
    3.1148   -6.7696    0.2606 C   0  0  0  0  0  0
    4.2025   -5.7119    0.1533 C   0  0  0  0  0  0
    4.2903   -4.8775    1.3897 C   0  0  0  0  0  0
    3.5455   -3.7125    1.5256 C   0  0  0  0  0  0
    3.6461   -2.9505    2.6909 C   0  0  0  0  0  0
    4.4935   -3.3338    3.7503 C   0  0  0  0  0  0
    5.2445   -4.5239    3.5933 C   0  0  0  0  0  0
    5.1375   -5.2843    2.4178 C   0  0  0  0  0  0
    6.1717   -5.0203    4.6536 C   0  0  0  0  0  0
    6.8136   -6.0515    4.4985 O   0  0  0  0  0  0
    6.2652   -4.2244    5.8555 C   0  0  0  0  0  0
    5.5358   -3.0673    6.0092 C   0  0  0  0  0  0
    4.5732   -2.4610    5.0211 C   0  0  0  0  0  0
    5.0671   -1.0460    4.6475 C   0  0  0  0  0  0
    3.1764   -2.3703    5.6756 C   0  0  0  0  0  0
    5.8335   -2.5410    7.2392 N   0  5  0  0  0  0
    6.7461   -3.3404    7.8888 C   0  0  0  0  0  0
    7.0384   -4.4112    7.0397 C   0  0  0  0  0  0
    7.9601   -5.3844    7.4798 C   0  0  0  0  0  0
    8.5503   -5.2516    8.7421 C   0  0  0  0  0  0
    8.2375   -4.1725    9.5649 C   0  0  0  0  0  0
    7.3282   -3.1949    9.1533 C   0  0  0  0  0  0
    8.8552   -4.0608   10.8495 C   0  0  0  0  0  0
    9.3569   -3.9700   11.8926 N   0  0  0  0  0  0
    2.7017   -3.2942    0.5212 N   0  0  0  0  0  0
    1.2468   -3.3479    0.7096 C   0  0  0  0  0  0
    0.5608   -3.7389   -0.5969 C   0  0  0  0  0  0
    0.9701   -2.8024   -1.7356 C   0  0  0  0  0  0
    2.4932   -2.7675   -1.8695 C   0  0  0  0  0  0
    3.1696   -2.4050   -0.5469 C   0  0  0  0  0  0
    0.3499   -3.2100   -2.9945 N   0  3  0  0  0  0
   -1.1140   -3.2385   -2.8698 C   0  0  0  0  0  0
   -1.7386   -3.6548   -4.1984 C   0  0  0  0  0  0
   -1.3445   -2.7564   -5.2362 O   0  0  0  0  0  0
    0.0757   -2.7462   -5.3864 C   0  0  0  0  0  0
    0.7447   -2.3090   -4.0863 C   0  0  0  0  0  0
    3.0842   -7.3595   -0.6674 H   0  0  0  0  0  0
    2.1419   -6.2805    0.4165 H   0  0  0  0  0  0
    3.3317   -7.4337    1.1103 H   0  0  0  0  0  0
    5.1754   -6.2010   -0.0026 H   0  0  0  0  0  0
    3.9856   -5.0478   -0.6964 H   0  0  0  0  0  0
    3.0515   -2.0426    2.7722 H   0  0  0  0  0  0
    5.7128   -6.1992    2.2931 H   0  0  0  0  0  0
    5.1231   -0.4259    5.5543 H   0  0  0  0  0  0
    4.3656   -0.5894    3.9338 H   0  0  0  0  0  0
    6.0643   -1.1151    4.1883 H   0  0  0  0  0  0
    3.2353   -1.7481    6.5808 H   0  0  0  0  0  0
    2.8320   -3.3794    5.9461 H   0  0  0  0  0  0
    2.4675   -1.9189    4.9658 H   0  0  0  0  0  0
    8.2176   -6.2338    6.8535 H   0  0  0  0  0  0
    9.2599   -6.0095    9.0681 H   0  0  0  0  0  0
    7.0755   -2.3485    9.7852 H   0  0  0  0  0  0
    1.0043   -4.0936    1.4811 H   0  0  0  0  0  0
    0.8814   -2.3600    1.0268 H   0  0  0  0  0  0
    0.8452   -4.7666   -0.8671 H   0  0  0  0  0  0
   -0.5303   -3.6819   -0.4695 H   0  0  0  0  0  0
    0.5883   -1.7897   -1.5390 H   0  0  0  0  0  0
    2.8564   -3.7570   -2.1840 H   0  0  0  0  0  0
    2.7781   -2.0165   -2.6210 H   0  0  0  0  0  0
    2.9247   -1.3637   -0.2907 H   0  0  0  0  0  0
    4.2589   -2.5085   -0.6593 H   0  0  0  0  0  0
   -1.4017   -3.9601   -2.0910 H   0  0  0  0  0  0
   -1.4781   -2.2376   -2.5948 H   0  0  0  0  0  0
   -1.4054   -4.6705   -4.4579 H   0  0  0  0  0  0
   -2.8348   -3.6402   -4.1088 H   0  0  0  0  0  0
    0.4241   -3.7566   -5.6465 H   0  0  0  0  0  0
    0.3548   -2.0448   -6.1865 H   0  0  0  0  0  0
    0.4332   -1.2820   -3.8449 H   0  0  0  0  0  0
    1.8371   -2.3410   -4.2112 H   0  0  0  0  0  0
    0.7058   -4.2248   -3.2258 H   0  0  0  0  0  0
  1  2  1  0  0  0
  1 37  1  0  0  0
  1 38  1  0  0  0
  1 39  1  0  0  0
  2  3  1  0  0  0
  2 40  1  0  0  0
  2 41  1  0  0  0
  3  8  2  0  0  0
  3  4  1  0  0  0
  4  5  2  0  0  0
  4 25  1  0  0  0
  5  6  1  0  0  0
  5 42  1  0  0  0
  6 13  1  0  0  0
  6  7  2  0  0  0
  7  8  1  0  0  0
  7  9  1  0  0  0
  8 43  1  0  0  0
  9 10  2  0  0  0
  9 11  1  0  0  0
 11 18  1  0  0  0
 11 12  2  0  0  0
 12 13  1  0  0  0
 12 16  1  0  0  0
 13 14  1  0  0  0
 13 15  1  0  0  0
 14 44  1  0  0  0
 14 45  1  0  0  0
 14 46  1  0  0  0
 15 47  1  0  0  0
 15 48  1  0  0  0
 15 49  1  0  0  0
 16 17  1  0  0  0
 17 22  2  0  0  0
 17 18  1  0  0  0
 18 19  2  0  0  0
 19 20  1  0  0  0
 19 50  1  0  0  0
 20 21  2  0  0  0
 20 51  1  0  0  0
 21 22  1  0  0  0
 21 23  1  0  0  0
 22 52  1  0  0  0
 23 24  3  0  0  0
 25 30  1  0  0  0
 25 26  1  0  0  0
 26 27  1  0  0  0
 26 53  1  0  0  0
 26 54  1  0  0  0
 27 28  1  0  0  0
 27 55  1  0  0  0
 27 56  1  0  0  0
 28 29  1  0  0  0
 28 31  1  0  0  0
 28 57  1  0  0  0
 29 30  1  0  0  0
 29 58  1  0  0  0
 29 59  1  0  0  0
 30 60  1  0  0  0
 30 61  1  0  0  0
 31 36  1  0  0  0
 31 32  1  0  0  0
 31 70  1  0  0  0
 32 33  1  0  0  0
 32 62  1  0  0  0
 32 63  1  0  0  0
 33 34  1  0  0  0
 33 64  1  0  0  0
 33 65  1  0  0  0
 34 35  1  0  0  0
 35 36  1  0  0  0
 35 66  1  0  0  0
 35 67  1  0  0  0
 36 68  1  0  0  0
 36 69  1  0  0  0
M  CHG  2  16  -1  31   1
M  END
> <s_m_source_file>
/Users/andrea/Development/mcce-charges/epik_inhibitors/output/Alectinib/Alectinib-input.mol2

> <i_m_source_file_index>
1

> <r_epik_Ionization_Penalty>
  7.8754

> <r_epik_Ionization_Penalty_Charging>
  7.8754

> <r_epik_Ionization_Penalty_Neutral>
  0.0000

> <r_epik_State_Penalty>
  8.5277

> <i_epik_Tot_Q>
0

$$$$
9-ethyl-6,6-dimethyl-8-(4-morpholino-1-piperidyl)-11-oxo-5~{H}-benzo[b]carbazole-3-carbonitrile
                    3D
 Structure written by MMmdl.
 72 77  0  0  1  0            999 V2000
    3.1148   -6.7696    0.2606 C   0  0  0  0  0  0
    4.2025   -5.7119    0.1533 C   0  0  0  0  0  0
    4.2903   -4.8775    1.3897 C   0  0  0  0  0  0
    3.5455   -3.7125    1.5256 C   0  0  0  0  0  0
    3.6461   -2.9505    2.6909 C   0  0  0  0  0  0
    4.4935   -3.3338    3.7503 C   0  0  0  0  0  0
    5.2445   -4.5239    3.5933 C   0  0  0  0  0  0
    5.1375   -5.2843    2.4178 C   0  0  0  0  0  0
    6.1717   -5.0203    4.6536 C   0  0  0  0  0  0
    6.8136   -6.0515    4.4985 O   0  0  0  0  0  0
    6.2652   -4.2244    5.8555 C   0  0  0  0  0  0
    5.5358   -3.0673    6.0092 C   0  0  0  0  0  0
    4.5732   -2.4610    5.0211 C   0  0  0  0  0  0
    5.0671   -1.0460    4.6475 C   0  0  0  0  0  0
    3.1764   -2.3703    5.6756 C   0  0  0  0  0  0
    5.8335   -2.5410    7.2392 N   0  0  0  0  0  0
    6.7461   -3.3404    7.8888 C   0  0  0  0  0  0
    7.0384   -4.4112    7.0397 C   0  0  0  0  0  0
    7.9601   -5.3844    7.4798 C   0  0  0  0  0  0
    8.5503   -5.2516    8.7421 C   0  0  0  0  0  0
    8.2375   -4.1725    9.5649 C   0  0  0  0  0  0
    7.3282   -3.1949    9.1533 C   0  0  0  0  0  0
    8.8552   -4.0608   10.8495 C   0  0  0  0  0  0
    9.3569   -3.9700   11.8926 N   0  0  0  0  0  0
    2.7017   -3.2942    0.5212 N   0  3  1  0  0  0
    1.2468   -3.3479    0.7096 C   0  0  0  0  0  0
    0.5608   -3.7389   -0.5969 C   0  0  0  0  0  0
    0.9701   -2.8024   -1.7356 C   0  0  1  0  0  0
    2.4932   -2.7675   -1.8695 C   0  0  0  0  0  0
    3.1696   -2.4050   -0.5469 C   0  0  0  0  0  0
    0.3499   -3.2100   -2.9945 N   0  3  0  0  0  0
   -1.1140   -3.2385   -2.8698 C   0  0  0  0  0  0
   -1.7386   -3.6548   -4.1984 C   0  0  0  0  0  0
   -1.3445   -2.7564   -5.2362 O   0  0  0  0  0  0
    0.0757   -2.7462   -5.3864 C   0  0  0  0  0  0
    0.7447   -2.3090   -4.0863 C   0  0  0  0  0  0
    3.0842   -7.3595   -0.6674 H   0  0  0  0  0  0
    2.1419   -6.2805    0.4165 H   0  0  0  0  0  0
    3.3317   -7.4337    1.1103 H   0  0  0  0  0  0
    5.1754   -6.2010   -0.0026 H   0  0  0  0  0  0
    3.9856   -5.0478   -0.6964 H   0  0  0  0  0  0
    3.0515   -2.0426    2.7722 H   0  0  0  0  0  0
    5.7128   -6.1992    2.2931 H   0  0  0  0  0  0
    5.1231   -0.4259    5.5543 H   0  0  0  0  0  0
    4.3656   -0.5894    3.9338 H   0  0  0  0  0  0
    6.0643   -1.1151    4.1883 H   0  0  0  0  0  0
    3.2353   -1.7481    6.5808 H   0  0  0  0  0  0
    2.8320   -3.3794    5.9461 H   0  0  0  0  0  0
    2.4675   -1.9189    4.9658 H   0  0  0  0  0  0
    5.3560   -1.6061    7.5676 H   0  0  0  0  0  0
    8.2176   -6.2338    6.8535 H   0  0  0  0  0  0
    9.2599   -6.0095    9.0681 H   0  0  0  0  0  0
    7.0755   -2.3485    9.7852 H   0  0  0  0  0  0
    1.0043   -4.0936    1.4811 H   0  0  0  0  0  0
    0.8814   -2.3600    1.0268 H   0  0  0  0  0  0
    0.8452   -4.7666   -0.8671 H   0  0  0  0  0  0
   -0.5303   -3.6819   -0.4695 H   0  0  0  0  0  0
    0.5883   -1.7897   -1.5390 H   0  0  0  0  0  0
    2.8564   -3.7570   -2.1840 H   0  0  0  0  0  0
    2.7781   -2.0165   -2.6210 H   0  0  0  0  0  0
    2.9247   -1.3637   -0.2907 H   0  0  0  0  0  0
    4.2589   -2.5085   -0.6593 H   0  0  0  0  0  0
   -1.4017   -3.9601   -2.0910 H   0  0  0  0  0  0
   -1.4781   -2.2376   -2.5948 H   0  0  0  0  0  0
   -1.4054   -4.6705   -4.4579 H   0  0  0  0  0  0
   -2.8348   -3.6402   -4.1088 H   0  0  0  0  0  0
    0.4241   -3.7566   -5.6465 H   0  0  0  0  0  0
    0.3548   -2.0448   -6.1865 H   0  0  0  0  0  0
    0.4332   -1.2820   -3.8449 H   0  0  0  0  0  0
    1.8371   -2.3410   -4.2112 H   0  0  0  0  0  0
    0.7058   -4.2248   -3.2258 H   0  0  0  0  0  0
    3.0453   -4.2954    0.2220 H   0  0  0  0  0  0
  1  2  1  0  0  0
  1 37  1  0  0  0
  1 38  1  0  0  0
  1 39  1  0  0  0
  2  3  1  0  0  0
  2 40  1  0  0  0
  2 41  1  0  0  0
  3  8  2  0  0  0
  3  4  1  0  0  0
  4  5  2  0  0  0
  4 25  1  0  0  0
  5  6  1  0  0  0
  5 42  1  0  0  0
  6 13  1  0  0  0
  6  7  2  0  0  0
  7  8  1  0  0  0
  7  9  1  0  0  0
  8 43  1  0  0  0
  9 10  2  0  0  0
  9 11  1  0  0  0
 11 18  1  0  0  0
 11 12  2  0  0  0
 12 13  1  0  0  0
 12 16  1  0  0  0
 13 14  1  0  0  0
 13 15  1  0  0  0
 14 44  1  0  0  0
 14 45  1  0  0  0
 14 46  1  0  0  0
 15 47  1  0  0  0
 15 48  1  0  0  0
 15 49  1  0  0  0
 16 17  1  0  0  0
 16 50  1  0  0  0
 17 22  2  0  0  0
 17 18  1  0  0  0
 18 19  2  0  0  0
 19 20  1  0  0  0
 19 51  1  0  0  0
 20 21  2  0  0  0
 20 52  1  0  0  0
 21 22  1  0  0  0
 21 23  1  0  0  0
 22 53  1  0  0  0
 23 24  3  0  0  0
 25 30  1  0  0  0
 25 26  1  0  0  0
 25 72  1  0  0  0
 26 27  1  0  0  0
 26 54  1  0  0  0
 26 55  1  0  0  0
 27 28  1  0  0  0
 27 56  1  0  0  0
 27 57  1  0  0  0
 28 29  1  0  0  0
 28 31  1  0  0  0
 28 58  1  0  0  0
 29 30  1  0  0  0
 29 59  1  0  0  0
 29 60  1  0  0  0
 30 61  1  0  0  0
 30 62  1  0  0  0
 31 36  1  0  0  0
 31 32  1  0  0  0
 31 71  1  0  0  0
 32 33  1  0  0  0
 32 63  1  0  0  0
 32 64  1  0  0  0
 33 34  1  0  0  0
 33 65  1  0  0  0
 33 66  1  0  0  0
 34 35  1  0  0  0
 35 36  1  0  0  0
 35 67  1  0  0  0
 35 68  1  0  0  0
 36 69  1  0  0  0
 36 70  1  0  0  0
M  CHG  2  25   1  31   1
M  END
> <s_m_source_file>
/Users/andrea/Development/mcce-charges/epik_inhibitors/output/Alectinib/Alectinib-input.mol2

> <i_m_source_file_index>
1

> <r_epik_Ionization_Penalty>
 10.0136

> <r_epik_Ionization_Penalty_Charging>
 10.0136

> <r_epik_Ionization_Penalty_Neutral>
  0.0000

> <r_epik_State_Penalty>
  9.3778

> <i_epik_Tot_Q>
2

$$$$
