@<TRIPOS>MOLECULE
9-ethyl-6,6-dimethyl-8-(4-morpholino-1-piperidyl)-11-oxo-5~{H}-benzo[b]carbazole-3-carbonitrile
70   75    1
SMALL
USER_CHARGES


@<TRIPOS>ATOM
      1 C1          3.1148   -6.7696    0.2606 C.3       1 ALE        -0.0869 
      2 C2          4.2025   -5.7119    0.1533 C.3       1 ALE        -0.0310 
      3 C3          4.2903   -4.8775    1.3897 C.ar      1 ALE        -0.0809 
      4 C4          3.5455   -3.7125    1.5256 C.ar      1 ALE         0.1874 
      5 C5          3.6461   -2.9505    2.6909 C.ar      1 ALE        -0.1638 
      6 C6          4.4935   -3.3338    3.7503 C.ar      1 ALE        -0.0335 
      7 C7          5.2445   -4.5239    3.5933 C.ar      1 ALE        -0.1583 
      8 C8          5.1375   -5.2843    2.4178 C.ar      1 ALE        -0.0767 
      9 C9          6.1717   -5.0203    4.6536 C.2       1 ALE         0.6202 
     10 O1          6.8136   -6.0515    4.4985 O.2       1 ALE        -0.5481 
     11 C10         6.2652   -4.2244    5.8555 C.ar      1 ALE        -0.2246 
     12 C11         5.5358   -3.0673    6.0092 C.ar      1 ALE         0.1333 
     13 C12         4.5732   -2.4610    5.0211 C.3       1 ALE         0.0427 
     14 C13         5.0671   -1.0460    4.6475 C.3       1 ALE        -0.0887 
     15 C14         3.1764   -2.3703    5.6756 C.3       1 ALE        -0.0887 
     16 N1          5.8335   -2.5410    7.2392 N.pl3     1 ALE        -0.5641 
     17 C15         6.7461   -3.3404    7.8888 C.ar      1 ALE         0.0601 
     18 C16         7.0384   -4.4112    7.0397 C.ar      1 ALE        -0.0238 
     19 C17         7.9601   -5.3844    7.4798 C.ar      1 ALE        -0.0833 
     20 C18         8.5503   -5.2516    8.7421 C.ar      1 ALE        -0.1132 
     21 C19         8.2375   -4.1725    9.5649 C.ar      1 ALE        -0.0086 
     22 C20         7.3282   -3.1949    9.1533 C.ar      1 ALE        -0.0993 
     23 C21         8.8552   -4.0608   10.8495 C.1       1 ALE         0.2360 
     24 N2          9.3569   -3.9700   11.8926 N.1       1 ALE        -0.3689 
     25 N3          2.7017   -3.2942    0.5212 N.pl3     1 ALE        -0.7592 
     26 C22         1.2468   -3.3479    0.7096 C.3       1 ALE         0.2425 
     27 C23         0.5608   -3.7389   -0.5969 C.3       1 ALE        -0.0915 
     28 C24         0.9701   -2.8024   -1.7356 C.3       1 ALE         0.1931 
     29 C25         2.4932   -2.7675   -1.8695 C.3       1 ALE        -0.0915 
     30 C26         3.1696   -2.4050   -0.5469 C.3       1 ALE         0.2425 
     31 N4          0.3499   -3.2100   -2.9945 N.3       1 ALE        -0.7228 
     32 C27        -1.1140   -3.2385   -2.8698 C.3       1 ALE         0.1289 
     33 C28        -1.7386   -3.6548   -4.1984 C.3       1 ALE         0.1258 
     34 O2         -1.3445   -2.7564   -5.2362 O.3       1 ALE        -0.4162 
     35 C29         0.0757   -2.7462   -5.3864 C.3       1 ALE         0.1258 
     36 C30         0.7447   -2.3090   -4.0863 C.3       1 ALE         0.1289 
     37 H1          3.0842   -7.3595   -0.6674 H         1 ALE         0.0370 
     38 H2          2.1419   -6.2805    0.4165 H         1 ALE         0.0370 
     39 H3          3.3317   -7.4337    1.1103 H         1 ALE         0.0370 
     40 H4          5.1754   -6.2010   -0.0026 H         1 ALE         0.0518 
     41 H5          3.9856   -5.0478   -0.6964 H         1 ALE         0.0518 
     42 H6          3.0515   -2.0426    2.7722 H         1 ALE         0.1369 
     43 H7          5.7128   -6.1992    2.2931 H         1 ALE         0.1613 
     44 H8          5.1231   -0.4259    5.5543 H         1 ALE         0.0467 
     45 H9          4.3656   -0.5894    3.9338 H         1 ALE         0.0467 
     46 H10         6.0643   -1.1151    4.1883 H         1 ALE         0.0467 
     47 H11         3.2353   -1.7481    6.5808 H         1 ALE         0.0467 
     48 H12         2.8320   -3.3794    5.9461 H         1 ALE         0.0467 
     49 H13         2.4675   -1.9189    4.9658 H         1 ALE         0.0467 
     50 H14         5.3560   -1.6061    7.5676 H         1 ALE         0.4606 
     51 H15         8.2176   -6.2338    6.8535 H         1 ALE         0.1655 
     52 H16         9.2599   -6.0095    9.0681 H         1 ALE         0.1464 
     53 H17         7.0755   -2.3485    9.7852 H         1 ALE         0.1451 
     54 H18         1.0043   -4.0936    1.4811 H         1 ALE         0.0325 
     55 H19         0.8814   -2.3600    1.0268 H         1 ALE         0.0325 
     56 H20         0.8452   -4.7666   -0.8671 H         1 ALE         0.0542 
     57 H21        -0.5303   -3.6819   -0.4695 H         1 ALE         0.0542 
     58 H22         0.5883   -1.7897   -1.5390 H         1 ALE         0.0176 
     59 H23         2.8564   -3.7570   -2.1840 H         1 ALE         0.0542 
     60 H24         2.7781   -2.0165   -2.6210 H         1 ALE         0.0542 
     61 H25         2.9247   -1.3637   -0.2907 H         1 ALE         0.0325 
     62 H26         4.2589   -2.5085   -0.6593 H         1 ALE         0.0325 
     63 H27        -1.4017   -3.9601   -2.0910 H         1 ALE         0.0414 
     64 H28        -1.4781   -2.2376   -2.5948 H         1 ALE         0.0414 
     65 H29        -1.4054   -4.6705   -4.4579 H         1 ALE         0.0540 
     66 H30        -2.8348   -3.6402   -4.1088 H         1 ALE         0.0540 
     67 H31         0.4241   -3.7566   -5.6465 H         1 ALE         0.0540 
     68 H32         0.3548   -2.0448   -6.1865 H         1 ALE         0.0540 
     69 H33         0.4332   -1.2820   -3.8449 H         1 ALE         0.0414 
     70 H34         1.8371   -2.3410   -4.2112 H         1 ALE         0.0414 
@<TRIPOS>BOND
     1    1    2 1    
     2    1   37 1    
     3    1   38 1    
     4    1   39 1    
     5    2    3 1    
     6    2   40 1    
     7    2   41 1    
     8    3    8 ar   
     9    3    4 ar   
    10    4    5 ar   
    11    4   25 1    
    12    5    6 ar   
    13    5   42 1    
    14    6   13 1    
    15    6    7 ar   
    16    7    8 ar   
    17    7    9 1    
    18    8   43 1    
    19    9   10 2    
    20    9   11 1    
    21   11   18 ar   
    22   11   12 ar   
    23   12   13 1    
    24   12   16 ar   
    25   13   14 1    
    26   13   15 1    
    27   14   44 1    
    28   14   45 1    
    29   14   46 1    
    30   15   47 1    
    31   15   48 1    
    32   15   49 1    
    33   16   17 ar   
    34   16   50 1    
    35   17   22 ar   
    36   17   18 ar   
    37   18   19 ar   
    38   19   20 ar   
    39   19   51 1    
    40   20   21 ar   
    41   20   52 1    
    42   21   22 ar   
    43   21   23 1    
    44   22   53 1    
    45   23   24 3    
    46   25   30 1    
    47   25   26 1    
    48   26   27 1    
    49   26   54 1    
    50   26   55 1    
    51   27   28 1    
    52   27   56 1    
    53   27   57 1    
    54   28   29 1    
    55   28   31 1    
    56   28   58 1    
    57   29   30 1    
    58   29   59 1    
    59   29   60 1    
    60   30   61 1    
    61   30   62 1    
    62   31   36 1    
    63   31   32 1    
    64   32   33 1    
    65   32   63 1    
    66   32   64 1    
    67   33   34 1    
    68   33   65 1    
    69   33   66 1    
    70   34   35 1    
    71   35   36 1    
    72   35   67 1    
    73   35   68 1    
    74   36   69 1    
    75   36   70 1    
@<TRIPOS>SUBSTRUCTURE
     1 ALE         1 GROUP             0       ****    0 ROOT    
@<TRIPOS>MOLECULE
9-ethyl-6,6-dimethyl-8-(4-morpholino-1-piperidyl)-11-oxo-5~{H}-benzo[b]carbazole-3-carbonitrile
71   76    1
SMALL
USER_CHARGES


@<TRIPOS>ATOM
      1 C1          3.1148   -6.7696    0.2606 C.3       1 ALE        -0.0869 
      2 C2          4.2025   -5.7119    0.1533 C.3       1 ALE        -0.0310 
      3 C3          4.2903   -4.8775    1.3897 C.ar      1 ALE        -0.0809 
      4 C4          3.5455   -3.7125    1.5256 C.ar      1 ALE         0.1874 
      5 C5          3.6461   -2.9505    2.6909 C.ar      1 ALE        -0.1638 
      6 C6          4.4935   -3.3338    3.7503 C.ar      1 ALE        -0.0335 
      7 C7          5.2445   -4.5239    3.5933 C.ar      1 ALE        -0.1583 
      8 C8          5.1375   -5.2843    2.4178 C.ar      1 ALE        -0.0767 
      9 C9          6.1717   -5.0203    4.6536 C.2       1 ALE         0.6202 
     10 O1          6.8136   -6.0515    4.4985 O.2       1 ALE        -0.5481 
     11 C10         6.2652   -4.2244    5.8555 C.ar      1 ALE        -0.2246 
     12 C11         5.5358   -3.0673    6.0092 C.ar      1 ALE         0.1333 
     13 C12         4.5732   -2.4610    5.0211 C.3       1 ALE         0.0427 
     14 C13         5.0671   -1.0460    4.6475 C.3       1 ALE        -0.0887 
     15 C14         3.1764   -2.3703    5.6756 C.3       1 ALE        -0.0887 
     16 N1          5.8335   -2.5410    7.2392 N.pl3     1 ALE        -0.5641 
     17 C15         6.7461   -3.3404    7.8888 C.ar      1 ALE         0.0601 
     18 C16         7.0384   -4.4112    7.0397 C.ar      1 ALE        -0.0238 
     19 C17         7.9601   -5.3844    7.4798 C.ar      1 ALE        -0.0833 
     20 C18         8.5503   -5.2516    8.7421 C.ar      1 ALE        -0.1132 
     21 C19         8.2375   -4.1725    9.5649 C.ar      1 ALE        -0.0086 
     22 C20         7.3282   -3.1949    9.1533 C.ar      1 ALE        -0.0993 
     23 C21         8.8552   -4.0608   10.8495 C.1       1 ALE         0.2360 
     24 N2          9.3569   -3.9700   11.8926 N.1       1 ALE        -0.3689 
     25 N3          2.7017   -3.2942    0.5212 N.pl3     1 ALE        -0.7592 
     26 C22         1.2468   -3.3479    0.7096 C.3       1 ALE         0.2425 
     27 C23         0.5608   -3.7389   -0.5969 C.3       1 ALE        -0.0915 
     28 C24         0.9701   -2.8024   -1.7356 C.3       1 ALE         0.1931 
     29 C25         2.4932   -2.7675   -1.8695 C.3       1 ALE        -0.0915 
     30 C26         3.1696   -2.4050   -0.5469 C.3       1 ALE         0.2425 
     31 N4          0.3499   -3.2100   -2.9945 N.4       1 ALE        -0.7228 
     32 C27        -1.1140   -3.2385   -2.8698 C.3       1 ALE         0.1289 
     33 C28        -1.7386   -3.6548   -4.1984 C.3       1 ALE         0.1258 
     34 O2         -1.3445   -2.7564   -5.2362 O.3       1 ALE        -0.4162 
     35 C29         0.0757   -2.7462   -5.3864 C.3       1 ALE         0.1258 
     36 C30         0.7447   -2.3090   -4.0863 C.3       1 ALE         0.1289 
     37 H1          3.0842   -7.3595   -0.6674 H         1 ALE         0.0370 
     38 H2          2.1419   -6.2805    0.4165 H         1 ALE         0.0370 
     39 H3          3.3317   -7.4337    1.1103 H         1 ALE         0.0370 
     40 H4          5.1754   -6.2010   -0.0026 H         1 ALE         0.0518 
     41 H5          3.9856   -5.0478   -0.6964 H         1 ALE         0.0518 
     42 H6          3.0515   -2.0426    2.7722 H         1 ALE         0.1369 
     43 H7          5.7128   -6.1992    2.2931 H         1 ALE         0.1613 
     44 H8          5.1231   -0.4259    5.5543 H         1 ALE         0.0467 
     45 H9          4.3656   -0.5894    3.9338 H         1 ALE         0.0467 
     46 H10         6.0643   -1.1151    4.1883 H         1 ALE         0.0467 
     47 H11         3.2353   -1.7481    6.5808 H         1 ALE         0.0467 
     48 H12         2.8320   -3.3794    5.9461 H         1 ALE         0.0467 
     49 H13         2.4675   -1.9189    4.9658 H         1 ALE         0.0467 
     50 H14         5.3560   -1.6061    7.5676 H         1 ALE         0.4606 
     51 H15         8.2176   -6.2338    6.8535 H         1 ALE         0.1655 
     52 H16         9.2599   -6.0095    9.0681 H         1 ALE         0.1464 
     53 H17         7.0755   -2.3485    9.7852 H         1 ALE         0.1451 
     54 H18         1.0043   -4.0936    1.4811 H         1 ALE         0.0325 
     55 H19         0.8814   -2.3600    1.0268 H         1 ALE         0.0325 
     56 H20         0.8452   -4.7666   -0.8671 H         1 ALE         0.0542 
     57 H21        -0.5303   -3.6819   -0.4695 H         1 ALE         0.0542 
     58 H22         0.5883   -1.7897   -1.5390 H         1 ALE         0.0176 
     59 H23         2.8564   -3.7570   -2.1840 H         1 ALE         0.0542 
     60 H24         2.7781   -2.0165   -2.6210 H         1 ALE         0.0542 
     61 H25         2.9247   -1.3637   -0.2907 H         1 ALE         0.0325 
     62 H26         4.2589   -2.5085   -0.6593 H         1 ALE         0.0325 
     63 H27        -1.4017   -3.9601   -2.0910 H         1 ALE         0.0414 
     64 H28        -1.4781   -2.2376   -2.5948 H         1 ALE         0.0414 
     65 H29        -1.4054   -4.6705   -4.4579 H         1 ALE         0.0540 
     66 H30        -2.8348   -3.6402   -4.1088 H         1 ALE         0.0540 
     67 H31         0.4241   -3.7566   -5.6465 H         1 ALE         0.0540 
     68 H32         0.3548   -2.0448   -6.1865 H         1 ALE         0.0540 
     69 H33         0.4332   -1.2820   -3.8449 H         1 ALE         0.0414 
     70 H34         1.8371   -2.3410   -4.2112 H         1 ALE         0.0414 
     71 H71         0.7058   -4.2248   -3.2258 H         1 ALE         0.0000 
@<TRIPOS>BOND
     1    1    2 1    
     2    1   37 1    
     3    1   38 1    
     4    1   39 1    
     5    2    3 1    
     6    2   40 1    
     7    2   41 1    
     8    3    8 ar   
     9    3    4 ar   
    10    4    5 ar   
    11    4   25 1    
    12    5    6 ar   
    13    5   42 1    
    14    6   13 1    
    15    6    7 ar   
    16    7    8 ar   
    17    7    9 1    
    18    8   43 1    
    19    9   10 2    
    20    9   11 1    
    21   11   18 ar   
    22   11   12 ar   
    23   12   13 1    
    24   12   16 ar   
    25   13   14 1    
    26   13   15 1    
    27   14   44 1    
    28   14   45 1    
    29   14   46 1    
    30   15   47 1    
    31   15   48 1    
    32   15   49 1    
    33   16   17 ar   
    34   16   50 1    
    35   17   22 ar   
    36   17   18 ar   
    37   18   19 ar   
    38   19   20 ar   
    39   19   51 1    
    40   20   21 ar   
    41   20   52 1    
    42   21   22 ar   
    43   21   23 1    
    44   22   53 1    
    45   23   24 3    
    46   25   30 1    
    47   25   26 1    
    48   26   27 1    
    49   26   54 1    
    50   26   55 1    
    51   27   28 1    
    52   27   56 1    
    53   27   57 1    
    54   28   29 1    
    55   28   31 1    
    56   28   58 1    
    57   29   30 1    
    58   29   59 1    
    59   29   60 1    
    60   30   61 1    
    61   30   62 1    
    62   31   36 1    
    63   31   32 1    
    64   31   71 1    
    65   32   33 1    
    66   32   63 1    
    67   32   64 1    
    68   33   34 1    
    69   33   65 1    
    70   33   66 1    
    71   34   35 1    
    72   35   36 1    
    73   35   67 1    
    74   35   68 1    
    75   36   69 1    
    76   36   70 1    
@<TRIPOS>SUBSTRUCTURE
     1 ALE         1 GROUP             0       ****    0 ROOT    
@<TRIPOS>MOLECULE
9-ethyl-6,6-dimethyl-8-(4-morpholino-1-piperidyl)-11-oxo-5~{H}-benzo[b]carbazole-3-carbonitrile
71   76    1
SMALL
USER_CHARGES


@<TRIPOS>ATOM
      1 C1          3.1148   -6.7696    0.2606 C.3       1 ALE        -0.0869 
      2 C2          4.2025   -5.7119    0.1533 C.3       1 ALE        -0.0310 
      3 C3          4.2903   -4.8775    1.3897 C.ar      1 ALE        -0.0809 
      4 C4          3.5455   -3.7125    1.5256 C.ar      1 ALE         0.1874 
      5 C5          3.6461   -2.9505    2.6909 C.ar      1 ALE        -0.1638 
      6 C6          4.4935   -3.3338    3.7503 C.ar      1 ALE        -0.0335 
      7 C7          5.2445   -4.5239    3.5933 C.ar      1 ALE        -0.1583 
      8 C8          5.1375   -5.2843    2.4178 C.ar      1 ALE        -0.0767 
      9 C9          6.1717   -5.0203    4.6536 C.2       1 ALE         0.6202 
     10 O1          6.8136   -6.0515    4.4985 O.2       1 ALE        -0.5481 
     11 C10         6.2652   -4.2244    5.8555 C.ar      1 ALE        -0.2246 
     12 C11         5.5358   -3.0673    6.0092 C.ar      1 ALE         0.1333 
     13 C12         4.5732   -2.4610    5.0211 C.3       1 ALE         0.0427 
     14 C13         5.0671   -1.0460    4.6475 C.3       1 ALE        -0.0887 
     15 C14         3.1764   -2.3703    5.6756 C.3       1 ALE        -0.0887 
     16 N1          5.8335   -2.5410    7.2392 N.pl3     1 ALE        -0.5641 
     17 C15         6.7461   -3.3404    7.8888 C.ar      1 ALE         0.0601 
     18 C16         7.0384   -4.4112    7.0397 C.ar      1 ALE        -0.0238 
     19 C17         7.9601   -5.3844    7.4798 C.ar      1 ALE        -0.0833 
     20 C18         8.5503   -5.2516    8.7421 C.ar      1 ALE        -0.1132 
     21 C19         8.2375   -4.1725    9.5649 C.ar      1 ALE        -0.0086 
     22 C20         7.3282   -3.1949    9.1533 C.ar      1 ALE        -0.0993 
     23 C21         8.8552   -4.0608   10.8495 C.1       1 ALE         0.2360 
     24 N2          9.3569   -3.9700   11.8926 N.1       1 ALE        -0.3689 
     25 N3          2.7017   -3.2942    0.5212 N.4       1 ALE        -0.7592 
     26 C22         1.2468   -3.3479    0.7096 C.3       1 ALE         0.2425 
     27 C23         0.5608   -3.7389   -0.5969 C.3       1 ALE        -0.0915 
     28 C24         0.9701   -2.8024   -1.7356 C.3       1 ALE         0.1931 
     29 C25         2.4932   -2.7675   -1.8695 C.3       1 ALE        -0.0915 
     30 C26         3.1696   -2.4050   -0.5469 C.3       1 ALE         0.2425 
     31 N4          0.3499   -3.2100   -2.9945 N.3       1 ALE        -0.7228 
     32 C27        -1.1140   -3.2385   -2.8698 C.3       1 ALE         0.1289 
     33 C28        -1.7386   -3.6548   -4.1984 C.3       1 ALE         0.1258 
     34 O2         -1.3445   -2.7564   -5.2362 O.3       1 ALE        -0.4162 
     35 C29         0.0757   -2.7462   -5.3864 C.3       1 ALE         0.1258 
     36 C30         0.7447   -2.3090   -4.0863 C.3       1 ALE         0.1289 
     37 H1          3.0842   -7.3595   -0.6674 H         1 ALE         0.0370 
     38 H2          2.1419   -6.2805    0.4165 H         1 ALE         0.0370 
     39 H3          3.3317   -7.4337    1.1103 H         1 ALE         0.0370 
     40 H4          5.1754   -6.2010   -0.0026 H         1 ALE         0.0518 
     41 H5          3.9856   -5.0478   -0.6964 H         1 ALE         0.0518 
     42 H6          3.0515   -2.0426    2.7722 H         1 ALE         0.1369 
     43 H7          5.7128   -6.1992    2.2931 H         1 ALE         0.1613 
     44 H8          5.1231   -0.4259    5.5543 H         1 ALE         0.0467 
     45 H9          4.3656   -0.5894    3.9338 H         1 ALE         0.0467 
     46 H10         6.0643   -1.1151    4.1883 H         1 ALE         0.0467 
     47 H11         3.2353   -1.7481    6.5808 H         1 ALE         0.0467 
     48 H12         2.8320   -3.3794    5.9461 H         1 ALE         0.0467 
     49 H13         2.4675   -1.9189    4.9658 H         1 ALE         0.0467 
     50 H14         5.3560   -1.6061    7.5676 H         1 ALE         0.4606 
     51 H15         8.2176   -6.2338    6.8535 H         1 ALE         0.1655 
     52 H16         9.2599   -6.0095    9.0681 H         1 ALE         0.1464 
     53 H17         7.0755   -2.3485    9.7852 H         1 ALE         0.1451 
     54 H18         1.0043   -4.0936    1.4811 H         1 ALE         0.0325 
     55 H19         0.8814   -2.3600    1.0268 H         1 ALE         0.0325 
     56 H20         0.8452   -4.7666   -0.8671 H         1 ALE         0.0542 
     57 H21        -0.5303   -3.6819   -0.4695 H         1 ALE         0.0542 
     58 H22         0.5883   -1.7897   -1.5390 H         1 ALE         0.0176 
     59 H23         2.8564   -3.7570   -2.1840 H         1 ALE         0.0542 
     60 H24         2.7781   -2.0165   -2.6210 H         1 ALE         0.0542 
     61 H25         2.9247   -1.3637   -0.2907 H         1 ALE         0.0325 
     62 H26         4.2589   -2.5085   -0.6593 H         1 ALE         0.0325 
     63 H27        -1.4017   -3.9601   -2.0910 H         1 ALE         0.0414 
     64 H28        -1.4781   -2.2376   -2.5948 H         1 ALE         0.0414 
     65 H29        -1.4054   -4.6705   -4.4579 H         1 ALE         0.0540 
     66 H30        -2.8348   -3.6402   -4.1088 H         1 ALE         0.0540 
     67 H31         0.4241   -3.7566   -5.6465 H         1 ALE         0.0540 
     68 H32         0.3548   -2.0448   -6.1865 H         1 ALE         0.0540 
     69 H33         0.4332   -1.2820   -3.8449 H         1 ALE         0.0414 
     70 H34         1.8371   -2.3410   -4.2112 H         1 ALE         0.0414 
     71 H71         3.0453   -4.2954    0.2220 H         1 ALE         0.0000 
@<TRIPOS>BOND
     1    1    2 1    
     2    1   37 1    
     3    1   38 1    
     4    1   39 1    
     5    2    3 1    
     6    2   40 1    
     7    2   41 1    
     8    3    8 ar   
     9    3    4 ar   
    10    4    5 ar   
    11    4   25 1    
    12    5    6 ar   
    13    5   42 1    
    14    6   13 1    
    15    6    7 ar   
    16    7    8 ar   
    17    7    9 1    
    18    8   43 1    
    19    9   10 2    
    20    9   11 1    
    21   11   18 ar   
    22   11   12 ar   
    23   12   13 1    
    24   12   16 ar   
    25   13   14 1    
    26   13   15 1    
    27   14   44 1    
    28   14   45 1    
    29   14   46 1    
    30   15   47 1    
    31   15   48 1    
    32   15   49 1    
    33   16   17 ar   
    34   16   50 1    
    35   17   22 ar   
    36   17   18 ar   
    37   18   19 ar   
    38   19   20 ar   
    39   19   51 1    
    40   20   21 ar   
    41   20   52 1    
    42   21   22 ar   
    43   21   23 1    
    44   22   53 1    
    45   23   24 3    
    46   25   30 1    
    47   25   26 1    
    48   25   71 1    
    49   26   27 1    
    50   26   54 1    
    51   26   55 1    
    52   27   28 1    
    53   27   56 1    
    54   27   57 1    
    55   28   29 1    
    56   28   31 1    
    57   28   58 1    
    58   29   30 1    
    59   29   59 1    
    60   29   60 1    
    61   30   61 1    
    62   30   62 1    
    63   31   36 1    
    64   31   32 1    
    65   32   33 1    
    66   32   63 1    
    67   32   64 1    
    68   33   34 1    
    69   33   65 1    
    70   33   66 1    
    71   34   35 1    
    72   35   36 1    
    73   35   67 1    
    74   35   68 1    
    75   36   69 1    
    76   36   70 1    
@<TRIPOS>SUBSTRUCTURE
     1 ALE         1 GROUP             0       ****    0 ROOT    
@<TRIPOS>MOLECULE
9-ethyl-6,6-dimethyl-8-(4-morpholino-1-piperidyl)-11-oxo-5~{H}-benzo[b]carbazole-3-carbonitrile
69   74    1
SMALL
USER_CHARGES


@<TRIPOS>ATOM
      1 C1          3.1148   -6.7696    0.2606 C.3       1 ALE        -0.0869 
      2 C2          4.2025   -5.7119    0.1533 C.3       1 ALE        -0.0310 
      3 C3          4.2903   -4.8775    1.3897 C.ar      1 ALE        -0.0809 
      4 C4          3.5455   -3.7125    1.5256 C.ar      1 ALE         0.1874 
      5 C5          3.6461   -2.9505    2.6909 C.ar      1 ALE        -0.1638 
      6 C6          4.4935   -3.3338    3.7503 C.ar      1 ALE        -0.0335 
      7 C7          5.2445   -4.5239    3.5933 C.ar      1 ALE        -0.1583 
      8 C8          5.1375   -5.2843    2.4178 C.ar      1 ALE        -0.0767 
      9 C9          6.1717   -5.0203    4.6536 C.2       1 ALE         0.6202 
     10 O1          6.8136   -6.0515    4.4985 O.2       1 ALE        -0.5481 
     11 C10         6.2652   -4.2244    5.8555 C.ar      1 ALE        -0.2246 
     12 C11         5.5358   -3.0673    6.0092 C.ar      1 ALE         0.1333 
     13 C12         4.5732   -2.4610    5.0211 C.3       1 ALE         0.0427 
     14 C13         5.0671   -1.0460    4.6475 C.3       1 ALE        -0.0887 
     15 C14         3.1764   -2.3703    5.6756 C.3       1 ALE        -0.0887 
     16 N1          5.8335   -2.5410    7.2392 N.2       1 ALE        -0.5641 
     17 C15         6.7461   -3.3404    7.8888 C.ar      1 ALE         0.0601 
     18 C16         7.0384   -4.4112    7.0397 C.ar      1 ALE        -0.0238 
     19 C17         7.9601   -5.3844    7.4798 C.ar      1 ALE        -0.0833 
     20 C18         8.5503   -5.2516    8.7421 C.ar      1 ALE        -0.1132 
     21 C19         8.2375   -4.1725    9.5649 C.ar      1 ALE        -0.0086 
     22 C20         7.3282   -3.1949    9.1533 C.ar      1 ALE        -0.0993 
     23 C21         8.8552   -4.0608   10.8495 C.1       1 ALE         0.2360 
     24 N2          9.3569   -3.9700   11.8926 N.1       1 ALE        -0.3689 
     25 N3          2.7017   -3.2942    0.5212 N.pl3     1 ALE        -0.7592 
     26 C22         1.2468   -3.3479    0.7096 C.3       1 ALE         0.2425 
     27 C23         0.5608   -3.7389   -0.5969 C.3       1 ALE        -0.0915 
     28 C24         0.9701   -2.8024   -1.7356 C.3       1 ALE         0.1931 
     29 C25         2.4932   -2.7675   -1.8695 C.3       1 ALE        -0.0915 
     30 C26         3.1696   -2.4050   -0.5469 C.3       1 ALE         0.2425 
     31 N4          0.3499   -3.2100   -2.9945 N.3       1 ALE        -0.7228 
     32 C27        -1.1140   -3.2385   -2.8698 C.3       1 ALE         0.1289 
     33 C28        -1.7386   -3.6548   -4.1984 C.3       1 ALE         0.1258 
     34 O2         -1.3445   -2.7564   -5.2362 O.3       1 ALE        -0.4162 
     35 C29         0.0757   -2.7462   -5.3864 C.3       1 ALE         0.1258 
     36 C30         0.7447   -2.3090   -4.0863 C.3       1 ALE         0.1289 
     37 H1          3.0842   -7.3595   -0.6674 H         1 ALE         0.0370 
     38 H2          2.1419   -6.2805    0.4165 H         1 ALE         0.0370 
     39 H3          3.3317   -7.4337    1.1103 H         1 ALE         0.0370 
     40 H4          5.1754   -6.2010   -0.0026 H         1 ALE         0.0518 
     41 H5          3.9856   -5.0478   -0.6964 H         1 ALE         0.0518 
     42 H6          3.0515   -2.0426    2.7722 H         1 ALE         0.1369 
     43 H7          5.7128   -6.1992    2.2931 H         1 ALE         0.1613 
     44 H8          5.1231   -0.4259    5.5543 H         1 ALE         0.0467 
     45 H9          4.3656   -0.5894    3.9338 H         1 ALE         0.0467 
     46 H10         6.0643   -1.1151    4.1883 H         1 ALE         0.0467 
     47 H11         3.2353   -1.7481    6.5808 H         1 ALE         0.0467 
     48 H12         2.8320   -3.3794    5.9461 H         1 ALE         0.0467 
     49 H13         2.4675   -1.9189    4.9658 H         1 ALE         0.0467 
     50 H15         8.2176   -6.2338    6.8535 H         1 ALE         0.1655 
     51 H16         9.2599   -6.0095    9.0681 H         1 ALE         0.1464 
     52 H17         7.0755   -2.3485    9.7852 H         1 ALE         0.1451 
     53 H18         1.0043   -4.0936    1.4811 H         1 ALE         0.0325 
     54 H19         0.8814   -2.3600    1.0268 H         1 ALE         0.0325 
     55 H20         0.8452   -4.7666   -0.8671 H         1 ALE         0.0542 
     56 H21        -0.5303   -3.6819   -0.4695 H         1 ALE         0.0542 
     57 H22         0.5883   -1.7897   -1.5390 H         1 ALE         0.0176 
     58 H23         2.8564   -3.7570   -2.1840 H         1 ALE         0.0542 
     59 H24         2.7781   -2.0165   -2.6210 H         1 ALE         0.0542 
     60 H25         2.9247   -1.3637   -0.2907 H         1 ALE         0.0325 
     61 H26         4.2589   -2.5085   -0.6593 H         1 ALE         0.0325 
     62 H27        -1.4017   -3.9601   -2.0910 H         1 ALE         0.0414 
     63 H28        -1.4781   -2.2376   -2.5948 H         1 ALE         0.0414 
     64 H29        -1.4054   -4.6705   -4.4579 H         1 ALE         0.0540 
     65 H30        -2.8348   -3.6402   -4.1088 H         1 ALE         0.0540 
     66 H31         0.4241   -3.7566   -5.6465 H         1 ALE         0.0540 
     67 H32         0.3548   -2.0448   -6.1865 H         1 ALE         0.0540 
     68 H33         0.4332   -1.2820   -3.8449 H         1 ALE         0.0414 
     69 H34         1.8371   -2.3410   -4.2112 H         1 ALE         0.0414 
@<TRIPOS>BOND
     1    1    2 1    
     2    1   37 1    
     3    1   38 1    
     4    1   39 1    
     5    2    3 1    
     6    2   40 1    
     7    2   41 1    
     8    3    8 ar   
     9    3    4 ar   
    10    4    5 ar   
    11    4   25 1    
    12    5    6 ar   
    13    5   42 1    
    14    6   13 1    
    15    6    7 ar   
    16    7    8 ar   
    17    7    9 1    
    18    8   43 1    
    19    9   10 2    
    20    9   11 1    
    21   11   18 ar   
    22   11   12 ar   
    23   12   13 1    
    24   12   16 ar   
    25   13   14 1    
    26   13   15 1    
    27   14   44 1    
    28   14   45 1    
    29   14   46 1    
    30   15   47 1    
    31   15   48 1    
    32   15   49 1    
    33   16   17 ar   
    34   17   22 ar   
    35   17   18 ar   
    36   18   19 ar   
    37   19   20 ar   
    38   19   50 1    
    39   20   21 ar   
    40   20   51 1    
    41   21   22 ar   
    42   21   23 1    
    43   22   52 1    
    44   23   24 3    
    45   25   30 1    
    46   25   26 1    
    47   26   27 1    
    48   26   53 1    
    49   26   54 1    
    50   27   28 1    
    51   27   55 1    
    52   27   56 1    
    53   28   29 1    
    54   28   31 1    
    55   28   57 1    
    56   29   30 1    
    57   29   58 1    
    58   29   59 1    
    59   30   60 1    
    60   30   61 1    
    61   31   36 1    
    62   31   32 1    
    63   32   33 1    
    64   32   62 1    
    65   32   63 1    
    66   33   34 1    
    67   33   64 1    
    68   33   65 1    
    69   34   35 1    
    70   35   36 1    
    71   35   66 1    
    72   35   67 1    
    73   36   68 1    
    74   36   69 1    
@<TRIPOS>SUBSTRUCTURE
     1 ALE         1 GROUP             0       ****    0 ROOT    
@<TRIPOS>MOLECULE
9-ethyl-6,6-dimethyl-8-(4-morpholino-1-piperidyl)-11-oxo-5~{H}-benzo[b]carbazole-3-carbonitrile
70   75    1
SMALL
USER_CHARGES


@<TRIPOS>ATOM
      1 C1          3.1148   -6.7696    0.2606 C.3       1 ALE        -0.0869 
      2 C2          4.2025   -5.7119    0.1533 C.3       1 ALE        -0.0310 
      3 C3          4.2903   -4.8775    1.3897 C.ar      1 ALE        -0.0809 
      4 C4          3.5455   -3.7125    1.5256 C.ar      1 ALE         0.1874 
      5 C5          3.6461   -2.9505    2.6909 C.ar      1 ALE        -0.1638 
      6 C6          4.4935   -3.3338    3.7503 C.ar      1 ALE        -0.0335 
      7 C7          5.2445   -4.5239    3.5933 C.ar      1 ALE        -0.1583 
      8 C8          5.1375   -5.2843    2.4178 C.ar      1 ALE        -0.0767 
      9 C9          6.1717   -5.0203    4.6536 C.2       1 ALE         0.6202 
     10 O1          6.8136   -6.0515    4.4985 O.2       1 ALE        -0.5481 
     11 C10         6.2652   -4.2244    5.8555 C.ar      1 ALE        -0.2246 
     12 C11         5.5358   -3.0673    6.0092 C.ar      1 ALE         0.1333 
     13 C12         4.5732   -2.4610    5.0211 C.3       1 ALE         0.0427 
     14 C13         5.0671   -1.0460    4.6475 C.3       1 ALE        -0.0887 
     15 C14         3.1764   -2.3703    5.6756 C.3       1 ALE        -0.0887 
     16 N1          5.8335   -2.5410    7.2392 N.2       1 ALE        -0.5641 
     17 C15         6.7461   -3.3404    7.8888 C.ar      1 ALE         0.0601 
     18 C16         7.0384   -4.4112    7.0397 C.ar      1 ALE        -0.0238 
     19 C17         7.9601   -5.3844    7.4798 C.ar      1 ALE        -0.0833 
     20 C18         8.5503   -5.2516    8.7421 C.ar      1 ALE        -0.1132 
     21 C19         8.2375   -4.1725    9.5649 C.ar      1 ALE        -0.0086 
     22 C20         7.3282   -3.1949    9.1533 C.ar      1 ALE        -0.0993 
     23 C21         8.8552   -4.0608   10.8495 C.1       1 ALE         0.2360 
     24 N2          9.3569   -3.9700   11.8926 N.1       1 ALE        -0.3689 
     25 N3          2.7017   -3.2942    0.5212 N.pl3     1 ALE        -0.7592 
     26 C22         1.2468   -3.3479    0.7096 C.3       1 ALE         0.2425 
     27 C23         0.5608   -3.7389   -0.5969 C.3       1 ALE        -0.0915 
     28 C24         0.9701   -2.8024   -1.7356 C.3       1 ALE         0.1931 
     29 C25         2.4932   -2.7675   -1.8695 C.3       1 ALE        -0.0915 
     30 C26         3.1696   -2.4050   -0.5469 C.3       1 ALE         0.2425 
     31 N4          0.3499   -3.2100   -2.9945 N.4       1 ALE        -0.7228 
     32 C27        -1.1140   -3.2385   -2.8698 C.3       1 ALE         0.1289 
     33 C28        -1.7386   -3.6548   -4.1984 C.3       1 ALE         0.1258 
     34 O2         -1.3445   -2.7564   -5.2362 O.3       1 ALE        -0.4162 
     35 C29         0.0757   -2.7462   -5.3864 C.3       1 ALE         0.1258 
     36 C30         0.7447   -2.3090   -4.0863 C.3       1 ALE         0.1289 
     37 H1          3.0842   -7.3595   -0.6674 H         1 ALE         0.0370 
     38 H2          2.1419   -6.2805    0.4165 H         1 ALE         0.0370 
     39 H3          3.3317   -7.4337    1.1103 H         1 ALE         0.0370 
     40 H4          5.1754   -6.2010   -0.0026 H         1 ALE         0.0518 
     41 H5          3.9856   -5.0478   -0.6964 H         1 ALE         0.0518 
     42 H6          3.0515   -2.0426    2.7722 H         1 ALE         0.1369 
     43 H7          5.7128   -6.1992    2.2931 H         1 ALE         0.1613 
     44 H8          5.1231   -0.4259    5.5543 H         1 ALE         0.0467 
     45 H9          4.3656   -0.5894    3.9338 H         1 ALE         0.0467 
     46 H10         6.0643   -1.1151    4.1883 H         1 ALE         0.0467 
     47 H11         3.2353   -1.7481    6.5808 H         1 ALE         0.0467 
     48 H12         2.8320   -3.3794    5.9461 H         1 ALE         0.0467 
     49 H13         2.4675   -1.9189    4.9658 H         1 ALE         0.0467 
     50 H15         8.2176   -6.2338    6.8535 H         1 ALE         0.1655 
     51 H16         9.2599   -6.0095    9.0681 H         1 ALE         0.1464 
     52 H17         7.0755   -2.3485    9.7852 H         1 ALE         0.1451 
     53 H18         1.0043   -4.0936    1.4811 H         1 ALE         0.0325 
     54 H19         0.8814   -2.3600    1.0268 H         1 ALE         0.0325 
     55 H20         0.8452   -4.7666   -0.8671 H         1 ALE         0.0542 
     56 H21        -0.5303   -3.6819   -0.4695 H         1 ALE         0.0542 
     57 H22         0.5883   -1.7897   -1.5390 H         1 ALE         0.0176 
     58 H23         2.8564   -3.7570   -2.1840 H         1 ALE         0.0542 
     59 H24         2.7781   -2.0165   -2.6210 H         1 ALE         0.0542 
     60 H25         2.9247   -1.3637   -0.2907 H         1 ALE         0.0325 
     61 H26         4.2589   -2.5085   -0.6593 H         1 ALE         0.0325 
     62 H27        -1.4017   -3.9601   -2.0910 H         1 ALE         0.0414 
     63 H28        -1.4781   -2.2376   -2.5948 H         1 ALE         0.0414 
     64 H29        -1.4054   -4.6705   -4.4579 H         1 ALE         0.0540 
     65 H30        -2.8348   -3.6402   -4.1088 H         1 ALE         0.0540 
     66 H31         0.4241   -3.7566   -5.6465 H         1 ALE         0.0540 
     67 H32         0.3548   -2.0448   -6.1865 H         1 ALE         0.0540 
     68 H33         0.4332   -1.2820   -3.8449 H         1 ALE         0.0414 
     69 H34         1.8371   -2.3410   -4.2112 H         1 ALE         0.0414 
     70 H70         0.7058   -4.2248   -3.2258 H         1 ALE         0.0000 
@<TRIPOS>BOND
     1    1    2 1    
     2    1   37 1    
     3    1   38 1    
     4    1   39 1    
     5    2    3 1    
     6    2   40 1    
     7    2   41 1    
     8    3    8 ar   
     9    3    4 ar   
    10    4    5 ar   
    11    4   25 1    
    12    5    6 ar   
    13    5   42 1    
    14    6   13 1    
    15    6    7 ar   
    16    7    8 ar   
    17    7    9 1    
    18    8   43 1    
    19    9   10 2    
    20    9   11 1    
    21   11   18 ar   
    22   11   12 ar   
    23   12   13 1    
    24   12   16 ar   
    25   13   14 1    
    26   13   15 1    
    27   14   44 1    
    28   14   45 1    
    29   14   46 1    
    30   15   47 1    
    31   15   48 1    
    32   15   49 1    
    33   16   17 ar   
    34   17   22 ar   
    35   17   18 ar   
    36   18   19 ar   
    37   19   20 ar   
    38   19   50 1    
    39   20   21 ar   
    40   20   51 1    
    41   21   22 ar   
    42   21   23 1    
    43   22   52 1    
    44   23   24 3    
    45   25   30 1    
    46   25   26 1    
    47   26   27 1    
    48   26   53 1    
    49   26   54 1    
    50   27   28 1    
    51   27   55 1    
    52   27   56 1    
    53   28   29 1    
    54   28   31 1    
    55   28   57 1    
    56   29   30 1    
    57   29   58 1    
    58   29   59 1    
    59   30   60 1    
    60   30   61 1    
    61   31   36 1    
    62   31   32 1    
    63   31   70 1    
    64   32   33 1    
    65   32   62 1    
    66   32   63 1    
    67   33   34 1    
    68   33   64 1    
    69   33   65 1    
    70   34   35 1    
    71   35   36 1    
    72   35   66 1    
    73   35   67 1    
    74   36   68 1    
    75   36   69 1    
@<TRIPOS>SUBSTRUCTURE
     1 ALE         1 GROUP             0       ****    0 ROOT    
@<TRIPOS>MOLECULE
9-ethyl-6,6-dimethyl-8-(4-morpholino-1-piperidyl)-11-oxo-5~{H}-benzo[b]carbazole-3-carbonitrile
72   77    1
SMALL
USER_CHARGES


@<TRIPOS>ATOM
      1 C1          3.1148   -6.7696    0.2606 C.3       1 ALE        -0.0869 
      2 C2          4.2025   -5.7119    0.1533 C.3       1 ALE        -0.0310 
      3 C3          4.2903   -4.8775    1.3897 C.ar      1 ALE        -0.0809 
      4 C4          3.5455   -3.7125    1.5256 C.ar      1 ALE         0.1874 
      5 C5          3.6461   -2.9505    2.6909 C.ar      1 ALE        -0.1638 
      6 C6          4.4935   -3.3338    3.7503 C.ar      1 ALE        -0.0335 
      7 C7          5.2445   -4.5239    3.5933 C.ar      1 ALE        -0.1583 
      8 C8          5.1375   -5.2843    2.4178 C.ar      1 ALE        -0.0767 
      9 C9          6.1717   -5.0203    4.6536 C.2       1 ALE         0.6202 
     10 O1          6.8136   -6.0515    4.4985 O.2       1 ALE        -0.5481 
     11 C10         6.2652   -4.2244    5.8555 C.ar      1 ALE        -0.2246 
     12 C11         5.5358   -3.0673    6.0092 C.ar      1 ALE         0.1333 
     13 C12         4.5732   -2.4610    5.0211 C.3       1 ALE         0.0427 
     14 C13         5.0671   -1.0460    4.6475 C.3       1 ALE        -0.0887 
     15 C14         3.1764   -2.3703    5.6756 C.3       1 ALE        -0.0887 
     16 N1          5.8335   -2.5410    7.2392 N.pl3     1 ALE        -0.5641 
     17 C15         6.7461   -3.3404    7.8888 C.ar      1 ALE         0.0601 
     18 C16         7.0384   -4.4112    7.0397 C.ar      1 ALE        -0.0238 
     19 C17         7.9601   -5.3844    7.4798 C.ar      1 ALE        -0.0833 
     20 C18         8.5503   -5.2516    8.7421 C.ar      1 ALE        -0.1132 
     21 C19         8.2375   -4.1725    9.5649 C.ar      1 ALE        -0.0086 
     22 C20         7.3282   -3.1949    9.1533 C.ar      1 ALE        -0.0993 
     23 C21         8.8552   -4.0608   10.8495 C.1       1 ALE         0.2360 
     24 N2          9.3569   -3.9700   11.8926 N.1       1 ALE        -0.3689 
     25 N3          2.7017   -3.2942    0.5212 N.4       1 ALE        -0.7592 
     26 C22         1.2468   -3.3479    0.7096 C.3       1 ALE         0.2425 
     27 C23         0.5608   -3.7389   -0.5969 C.3       1 ALE        -0.0915 
     28 C24         0.9701   -2.8024   -1.7356 C.3       1 ALE         0.1931 
     29 C25         2.4932   -2.7675   -1.8695 C.3       1 ALE        -0.0915 
     30 C26         3.1696   -2.4050   -0.5469 C.3       1 ALE         0.2425 
     31 N4          0.3499   -3.2100   -2.9945 N.4       1 ALE        -0.7228 
     32 C27        -1.1140   -3.2385   -2.8698 C.3       1 ALE         0.1289 
     33 C28        -1.7386   -3.6548   -4.1984 C.3       1 ALE         0.1258 
     34 O2         -1.3445   -2.7564   -5.2362 O.3       1 ALE        -0.4162 
     35 C29         0.0757   -2.7462   -5.3864 C.3       1 ALE         0.1258 
     36 C30         0.7447   -2.3090   -4.0863 C.3       1 ALE         0.1289 
     37 H1          3.0842   -7.3595   -0.6674 H         1 ALE         0.0370 
     38 H2          2.1419   -6.2805    0.4165 H         1 ALE         0.0370 
     39 H3          3.3317   -7.4337    1.1103 H         1 ALE         0.0370 
     40 H4          5.1754   -6.2010   -0.0026 H         1 ALE         0.0518 
     41 H5          3.9856   -5.0478   -0.6964 H         1 ALE         0.0518 
     42 H6          3.0515   -2.0426    2.7722 H         1 ALE         0.1369 
     43 H7          5.7128   -6.1992    2.2931 H         1 ALE         0.1613 
     44 H8          5.1231   -0.4259    5.5543 H         1 ALE         0.0467 
     45 H9          4.3656   -0.5894    3.9338 H         1 ALE         0.0467 
     46 H10         6.0643   -1.1151    4.1883 H         1 ALE         0.0467 
     47 H11         3.2353   -1.7481    6.5808 H         1 ALE         0.0467 
     48 H12         2.8320   -3.3794    5.9461 H         1 ALE         0.0467 
     49 H13         2.4675   -1.9189    4.9658 H         1 ALE         0.0467 
     50 H14         5.3560   -1.6061    7.5676 H         1 ALE         0.4606 
     51 H15         8.2176   -6.2338    6.8535 H         1 ALE         0.1655 
     52 H16         9.2599   -6.0095    9.0681 H         1 ALE         0.1464 
     53 H17         7.0755   -2.3485    9.7852 H         1 ALE         0.1451 
     54 H18         1.0043   -4.0936    1.4811 H         1 ALE         0.0325 
     55 H19         0.8814   -2.3600    1.0268 H         1 ALE         0.0325 
     56 H20         0.8452   -4.7666   -0.8671 H         1 ALE         0.0542 
     57 H21        -0.5303   -3.6819   -0.4695 H         1 ALE         0.0542 
     58 H22         0.5883   -1.7897   -1.5390 H         1 ALE         0.0176 
     59 H23         2.8564   -3.7570   -2.1840 H         1 ALE         0.0542 
     60 H24         2.7781   -2.0165   -2.6210 H         1 ALE         0.0542 
     61 H25         2.9247   -1.3637   -0.2907 H         1 ALE         0.0325 
     62 H26         4.2589   -2.5085   -0.6593 H         1 ALE         0.0325 
     63 H27        -1.4017   -3.9601   -2.0910 H         1 ALE         0.0414 
     64 H28        -1.4781   -2.2376   -2.5948 H         1 ALE         0.0414 
     65 H29        -1.4054   -4.6705   -4.4579 H         1 ALE         0.0540 
     66 H30        -2.8348   -3.6402   -4.1088 H         1 ALE         0.0540 
     67 H31         0.4241   -3.7566   -5.6465 H         1 ALE         0.0540 
     68 H32         0.3548   -2.0448   -6.1865 H         1 ALE         0.0540 
     69 H33         0.4332   -1.2820   -3.8449 H         1 ALE         0.0414 
     70 H34         1.8371   -2.3410   -4.2112 H         1 ALE         0.0414 
     71 H71         0.7058   -4.2248   -3.2258 H         1 ALE         0.0000 
     72 H72         3.0453   -4.2954    0.2220 H         1 ALE         0.0000 
@<TRIPOS>BOND
     1    1    2 1    
     2    1   37 1    
     3    1   38 1    
     4    1   39 1    
     5    2    3 1    
     6    2   40 1    
     7    2   41 1    
     8    3    8 ar   
     9    3    4 ar   
    10    4    5 ar   
    11    4   25 1    
    12    5    6 ar   
    13    5   42 1    
    14    6   13 1    
    15    6    7 ar   
    16    7    8 ar   
    17    7    9 1    
    18    8   43 1    
    19    9   10 2    
    20    9   11 1    
    21   11   18 ar   
    22   11   12 ar   
    23   12   13 1    
    24   12   16 ar   
    25   13   14 1    
    26   13   15 1    
    27   14   44 1    
    28   14   45 1    
    29   14   46 1    
    30   15   47 1    
    31   15   48 1    
    32   15   49 1    
    33   16   17 ar   
    34   16   50 1    
    35   17   22 ar   
    36   17   18 ar   
    37   18   19 ar   
    38   19   20 ar   
    39   19   51 1    
    40   20   21 ar   
    41   20   52 1    
    42   21   22 ar   
    43   21   23 1    
    44   22   53 1    
    45   23   24 3    
    46   25   30 1    
    47   25   26 1    
    48   25   72 1    
    49   26   27 1    
    50   26   54 1    
    51   26   55 1    
    52   27   28 1    
    53   27   56 1    
    54   27   57 1    
    55   28   29 1    
    56   28   31 1    
    57   28   58 1    
    58   29   30 1    
    59   29   59 1    
    60   29   60 1    
    61   30   61 1    
    62   30   62 1    
    63   31   36 1    
    64   31   32 1    
    65   31   71 1    
    66   32   33 1    
    67   32   63 1    
    68   32   64 1    
    69   33   34 1    
    70   33   65 1    
    71   33   66 1    
    72   34   35 1    
    73   35   36 1    
    74   35   67 1    
    75   35   68 1    
    76   36   69 1    
    77   36   70 1    
@<TRIPOS>SUBSTRUCTURE
     1 ALE         1 GROUP             0       ****    0 ROOT    
