~{N}-[3-[5-(2-aminopyrimidin-4-yl)-2-~{tert}-butyl-thiazol-4-yl]-2-fluoro-phenyl]-2,6-difluoro-benzenesulfonamide
                    3D
 Structure written by MMmdl.
 54 57  0  0  1  0            999 V2000
   -0.7704    1.1243    0.7246 C   0  0  0  0  0  0
   -2.0904    0.3299    0.6216 C   0  0  0  0  0  0
   -3.2789    1.2876    0.8548 C   0  0  0  0  0  0
   -2.1995   -0.1873   -0.8307 C   0  0  0  0  0  0
   -2.1077   -0.7840    1.6815 C   0  0  0  0  0  0
   -2.2053   -2.0668    1.4112 N   0  0  0  0  0  0
   -2.1915   -2.7753    2.5968 C   0  0  0  0  0  0
   -2.0846   -2.0224    3.7475 C   0  0  0  0  0  0
   -1.9952   -0.3589    3.3402 S   0  0  0  0  0  0
   -2.0399   -2.4085    5.1380 C   0  0  0  0  0  0
   -3.0793   -3.0998    5.7264 C   0  0  0  0  0  0
   -2.9119   -3.4069    7.0613 C   0  0  0  0  0  0
   -1.8185   -3.0705    7.7766 N   0  0  0  0  0  0
   -0.8750   -2.3985    7.0899 C   0  0  0  0  0  0
   -0.9190   -2.0403    5.7925 N   0  0  0  0  0  0
    0.2847   -2.0306    7.8069 N   0  0  0  0  0  0
   -2.2873   -4.2090    2.5984 C   0  0  0  0  0  0
   -1.2577   -4.9716    3.1498 C   0  0  0  0  0  0
   -1.3462   -6.3637    3.1539 C   0  0  0  0  0  0
   -2.4642   -6.9931    2.6065 C   0  0  0  0  0  0
   -3.4937   -6.2304    2.0551 C   0  0  0  0  0  0
   -3.4053   -4.8383    2.0510 C   0  0  0  0  0  0
   -4.3989   -4.1093    1.5188 F   0  0  0  0  0  0
   -4.6360   -6.8785    1.4949 N   0  5  0  0  0  0
   -5.5977   -7.8872    2.5075 S   0  0  0  0  0  0
   -6.7853   -8.2929    1.7791 O   0  0  0  0  0  0
   -4.7656   -8.8899    3.1443 O   0  0  0  0  0  0
   -6.1261   -6.7507    3.7572 C   0  0  0  0  0  0
   -6.8731   -5.6261    3.4063 C   0  0  0  0  0  0
   -7.2894   -4.7303    4.3911 C   0  0  0  0  0  0
   -6.9586   -4.9589    5.7268 C   0  0  0  0  0  0
   -6.2116   -6.0835    6.0776 C   0  0  0  0  0  0
   -5.7953   -6.9793    5.0928 C   0  0  0  0  0  0
   -5.0783   -8.0566    5.4423 F   0  0  0  0  0  0
   -7.1967   -5.3955    2.1261 F   0  0  0  0  0  0
    0.0796    0.4460    0.5591 H   0  0  0  0  0  0
   -0.6907    1.5748    1.7250 H   0  0  0  0  0  0
   -0.7598    1.9180   -0.0369 H   0  0  0  0  0  0
   -4.2220    0.7260    0.7824 H   0  0  0  0  0  0
   -3.2652    2.0811    0.0931 H   0  0  0  0  0  0
   -3.1961    1.7379    1.8550 H   0  0  0  0  0  0
   -3.1307   -0.7612   -0.9465 H   0  0  0  0  0  0
   -1.3392   -0.8351   -1.0548 H   0  0  0  0  0  0
   -2.2062    0.6664   -1.5244 H   0  0  0  0  0  0
   -3.9738   -3.3883    5.1885 H   0  0  0  0  0  0
   -3.6761   -3.9474    7.6095 H   0  0  0  0  0  0
    1.0920   -1.4799    7.3019 H   0  0  0  0  0  0
    0.3808   -2.2948    8.8704 H   0  0  0  0  0  0
   -0.3794   -4.4965    3.5803 H   0  0  0  0  0  0
   -0.5447   -6.9577    3.5834 H   0  0  0  0  0  0
   -2.5239   -8.0783    2.6147 H   0  0  0  0  0  0
   -7.8708   -3.8548    4.1173 H   0  0  0  0  0  0
   -7.2832   -4.2613    6.4933 H   0  0  0  0  0  0
   -5.9537   -6.2611    7.1175 H   0  0  0  0  0  0
  1  2  1  0  0  0
  1 36  1  0  0  0
  1 37  1  0  0  0
  1 38  1  0  0  0
  2  3  1  0  0  0
  2  4  1  0  0  0
  2  5  1  0  0  0
  3 39  1  0  0  0
  3 40  1  0  0  0
  3 41  1  0  0  0
  4 42  1  0  0  0
  4 43  1  0  0  0
  4 44  1  0  0  0
  5  9  1  0  0  0
  5  6  2  0  0  0
  6  7  1  0  0  0
  7  8  2  0  0  0
  7 17  1  0  0  0
  8  9  1  0  0  0
  8 10  1  0  0  0
 10 15  2  0  0  0
 10 11  1  0  0  0
 11 12  2  0  0  0
 11 45  1  0  0  0
 12 13  1  0  0  0
 12 46  1  0  0  0
 13 14  2  0  0  0
 14 15  1  0  0  0
 14 16  1  0  0  0
 16 47  1  0  0  0
 16 48  1  0  0  0
 17 22  2  0  0  0
 17 18  1  0  0  0
 18 19  2  0  0  0
 18 49  1  0  0  0
 19 20  1  0  0  0
 19 50  1  0  0  0
 20 21  2  0  0  0
 20 51  1  0  0  0
 21 22  1  0  0  0
 21 24  1  0  0  0
 22 23  1  0  0  0
 24 25  1  0  0  0
 25 26  2  0  0  0
 25 27  2  0  0  0
 25 28  1  0  0  0
 28 33  2  0  0  0
 28 29  1  0  0  0
 29 30  2  0  0  0
 29 35  1  0  0  0
 30 31  1  0  0  0
 30 52  1  0  0  0
 31 32  2  0  0  0
 31 53  1  0  0  0
 32 33  1  0  0  0
 32 54  1  0  0  0
 33 34  1  0  0  0
M  CHG  1  24  -1
M  END
> <s_m_source_file>
/cbio/jclab/home/andrrizzi/epik_inhibitors/output/Dabrafenib/Dabrafenib-input.mol2

> <i_m_source_file_index>
1

> <r_lp_tautomer_probability>
0.999999812000036

> <r_epik_Ionization_Penalty>
  0.2014

> <r_epik_Ionization_Penalty_Charging>
  0.2014

> <r_epik_Ionization_Penalty_Neutral>
  0.0000

> <r_epik_State_Penalty>
  0.1913

> <i_epik_Tot_Q>
-1

$$$$
~{N}-[3-[5-(2-aminopyrimidin-4-yl)-2-~{tert}-butyl-thiazol-4-yl]-2-fluoro-phenyl]-2,6-difluoro-benzenesulfonamide
                    3D
 Structure written by MMmdl.
 55 58  0  0  1  0            999 V2000
   -0.7704    1.1243    0.7246 C   0  0  0  0  0  0
   -2.0904    0.3299    0.6216 C   0  0  0  0  0  0
   -3.2789    1.2876    0.8548 C   0  0  0  0  0  0
   -2.1995   -0.1873   -0.8307 C   0  0  0  0  0  0
   -2.1077   -0.7840    1.6815 C   0  0  0  0  0  0
   -2.2053   -2.0668    1.4112 N   0  0  0  0  0  0
   -2.1915   -2.7753    2.5968 C   0  0  0  0  0  0
   -2.0846   -2.0224    3.7475 C   0  0  0  0  0  0
   -1.9952   -0.3589    3.3402 S   0  0  0  0  0  0
   -2.0399   -2.4085    5.1380 C   0  0  0  0  0  0
   -3.0793   -3.0998    5.7264 C   0  0  0  0  0  0
   -2.9119   -3.4069    7.0613 C   0  0  0  0  0  0
   -1.8185   -3.0705    7.7766 N   0  0  0  0  0  0
   -0.8750   -2.3985    7.0899 C   0  0  0  0  0  0
   -0.9190   -2.0403    5.7925 N   0  0  0  0  0  0
    0.2847   -2.0306    7.8069 N   0  0  0  0  0  0
   -2.2873   -4.2090    2.5984 C   0  0  0  0  0  0
   -1.2577   -4.9716    3.1498 C   0  0  0  0  0  0
   -1.3462   -6.3637    3.1539 C   0  0  0  0  0  0
   -2.4642   -6.9931    2.6065 C   0  0  0  0  0  0
   -3.4937   -6.2304    2.0551 C   0  0  0  0  0  0
   -3.4053   -4.8383    2.0510 C   0  0  0  0  0  0
   -4.3989   -4.1093    1.5188 F   0  0  0  0  0  0
   -4.6360   -6.8785    1.4949 N   0  0  0  0  0  0
   -5.5977   -7.8872    2.5075 S   0  0  0  0  0  0
   -6.7853   -8.2929    1.7791 O   0  0  0  0  0  0
   -4.7656   -8.8899    3.1443 O   0  0  0  0  0  0
   -6.1261   -6.7507    3.7572 C   0  0  0  0  0  0
   -6.8731   -5.6261    3.4063 C   0  0  0  0  0  0
   -7.2894   -4.7303    4.3911 C   0  0  0  0  0  0
   -6.9586   -4.9589    5.7268 C   0  0  0  0  0  0
   -6.2116   -6.0835    6.0776 C   0  0  0  0  0  0
   -5.7953   -6.9793    5.0928 C   0  0  0  0  0  0
   -5.0783   -8.0566    5.4423 F   0  0  0  0  0  0
   -7.1967   -5.3955    2.1261 F   0  0  0  0  0  0
    0.0796    0.4460    0.5591 H   0  0  0  0  0  0
   -0.6907    1.5748    1.7250 H   0  0  0  0  0  0
   -0.7598    1.9180   -0.0369 H   0  0  0  0  0  0
   -4.2220    0.7260    0.7824 H   0  0  0  0  0  0
   -3.2652    2.0811    0.0931 H   0  0  0  0  0  0
   -3.1961    1.7379    1.8550 H   0  0  0  0  0  0
   -3.1307   -0.7612   -0.9465 H   0  0  0  0  0  0
   -1.3392   -0.8351   -1.0548 H   0  0  0  0  0  0
   -2.2062    0.6664   -1.5244 H   0  0  0  0  0  0
   -3.9738   -3.3883    5.1885 H   0  0  0  0  0  0
   -3.6761   -3.9474    7.6095 H   0  0  0  0  0  0
    1.0920   -1.4799    7.3019 H   0  0  0  0  0  0
    0.3808   -2.2948    8.8704 H   0  0  0  0  0  0
   -0.3794   -4.4965    3.5803 H   0  0  0  0  0  0
   -0.5447   -6.9577    3.5834 H   0  0  0  0  0  0
   -2.5239   -8.0783    2.6147 H   0  0  0  0  0  0
   -4.9063   -6.7432    0.4372 H   0  0  0  0  0  0
   -7.8708   -3.8548    4.1173 H   0  0  0  0  0  0
   -7.2832   -4.2613    6.4933 H   0  0  0  0  0  0
   -5.9537   -6.2611    7.1175 H   0  0  0  0  0  0
  1  2  1  0  0  0
  1 36  1  0  0  0
  1 37  1  0  0  0
  1 38  1  0  0  0
  2  3  1  0  0  0
  2  4  1  0  0  0
  2  5  1  0  0  0
  3 39  1  0  0  0
  3 40  1  0  0  0
  3 41  1  0  0  0
  4 42  1  0  0  0
  4 43  1  0  0  0
  4 44  1  0  0  0
  5  9  1  0  0  0
  5  6  2  0  0  0
  6  7  1  0  0  0
  7  8  2  0  0  0
  7 17  1  0  0  0
  8  9  1  0  0  0
  8 10  1  0  0  0
 10 15  2  0  0  0
 10 11  1  0  0  0
 11 12  2  0  0  0
 11 45  1  0  0  0
 12 13  1  0  0  0
 12 46  1  0  0  0
 13 14  2  0  0  0
 14 15  1  0  0  0
 14 16  1  0  0  0
 16 47  1  0  0  0
 16 48  1  0  0  0
 17 22  2  0  0  0
 17 18  1  0  0  0
 18 19  2  0  0  0
 18 49  1  0  0  0
 19 20  1  0  0  0
 19 50  1  0  0  0
 20 21  2  0  0  0
 20 51  1  0  0  0
 21 22  1  0  0  0
 21 24  1  0  0  0
 22 23  1  0  0  0
 24 25  1  0  0  0
 24 52  1  0  0  0
 25 26  2  0  0  0
 25 27  2  0  0  0
 25 28  1  0  0  0
 28 33  2  0  0  0
 28 29  1  0  0  0
 29 30  2  0  0  0
 29 35  1  0  0  0
 30 31  1  0  0  0
 30 53  1  0  0  0
 31 32  2  0  0  0
 31 54  1  0  0  0
 32 33  1  0  0  0
 32 55  1  0  0  0
 33 34  1  0  0  0
M  END
> <s_m_source_file>
/cbio/jclab/home/andrrizzi/epik_inhibitors/output/Dabrafenib/Dabrafenib-input.mol2

> <i_m_source_file_index>
1

> <r_lp_tautomer_probability>
0.999999812000036

> <r_epik_Ionization_Penalty>
  0.7372

> <r_epik_Ionization_Penalty_Charging>
  0.0000

> <r_epik_Ionization_Penalty_Neutral>
  0.7372

> <r_epik_State_Penalty>
  0.7630

> <i_epik_Tot_Q>
0

$$$$
