~{N}-[3-[5-(2-aminopyrimidin-4-yl)-2-~{tert}-butyl-thiazol-4-yl]-2-fluoro-phenyl]-2,6-difluoro-benzenesulfonamide
                    3D
 Structure written by MMmdl.
 54 57  0  0  1  0            999 V2000
   -0.7704    1.1243    0.7246 C   0  0  0  0  0  0
   -2.0904    0.3299    0.6216 C   0  0  0  0  0  0
   -3.2789    1.2876    0.8548 C   0  0  0  0  0  0
   -2.1995   -0.1873   -0.8307 C   0  0  0  0  0  0
   -2.1077   -0.7840    1.6815 C   0  0  0  0  0  0
   -2.2053   -2.0668    1.4112 N   0  0  0  0  0  0
   -2.1915   -2.7753    2.5968 C   0  0  0  0  0  0
   -2.0846   -2.0224    3.7475 C   0  0  0  0  0  0
   -1.9952   -0.3589    3.3402 S   0  0  0  0  0  0
   -2.0399   -2.4085    5.1380 C   0  0  0  0  0  0
   -3.0793   -3.0998    5.7264 C   0  0  0  0  0  0
   -2.9119   -3.4069    7.0613 C   0  0  0  0  0  0
   -1.8185   -3.0705    7.7766 N   0  0  0  0  0  0
   -0.8750   -2.3985    7.0899 C   0  0  0  0  0  0
   -0.9190   -2.0403    5.7925 N   0  0  0  0  0  0
    0.2847   -2.0306    7.8069 N   0  0  0  0  0  0
   -2.2873   -4.2090    2.5984 C   0  0  0  0  0  0
   -1.2577   -4.9716    3.1498 C   0  0  0  0  0  0
   -1.3462   -6.3637    3.1539 C   0  0  0  0  0  0
   -2.4642   -6.9931    2.6065 C   0  0  0  0  0  0
   -3.4937   -6.2304    2.0551 C   0  0  0  0  0  0
   -3.4053   -4.8383    2.0510 C   0  0  0  0  0  0
   -4.3989   -4.1093    1.5188 F   0  0  0  0  0  0
   -4.6360   -6.8785    1.4949 N   0  5  0  0  0  0
   -5.5977   -7.8873    2.5075 S   0  0  0  0  0  0
   -6.7853   -8.2929    1.7791 O   0  0  0  0  0  0
   -4.7656   -8.8899    3.1443 O   0  0  0  0  0  0
   -6.1261   -6.7507    3.7572 C   0  0  0  0  0  0
   -6.8731   -5.6261    3.4063 C   0  0  0  0  0  0
   -7.2894   -4.7303    4.3911 C   0  0  0  0  0  0
   -6.9586   -4.9589    5.7268 C   0  0  0  0  0  0
   -6.2116   -6.0835    6.0776 C   0  0  0  0  0  0
   -5.7953   -6.9793    5.0928 C   0  0  0  0  0  0
   -5.0783   -8.0566    5.4423 F   0  0  0  0  0  0
   -7.1967   -5.3955    2.1261 F   0  0  0  0  0  0
    0.0796    0.4460    0.5591 H   0  0  0  0  0  0
   -0.6907    1.5748    1.7250 H   0  0  0  0  0  0
   -0.7598    1.9180   -0.0369 H   0  0  0  0  0  0
   -4.2220    0.7260    0.7824 H   0  0  0  0  0  0
   -3.2652    2.0811    0.0931 H   0  0  0  0  0  0
   -3.1961    1.7379    1.8550 H   0  0  0  0  0  0
   -3.1307   -0.7612   -0.9465 H   0  0  0  0  0  0
   -1.3392   -0.8351   -1.0548 H   0  0  0  0  0  0
   -2.2062    0.6664   -1.5244 H   0  0  0  0  0  0
   -3.9738   -3.3883    5.1885 H   0  0  0  0  0  0
   -3.6761   -3.9474    7.6095 H   0  0  0  0  0  0
    1.0920   -1.4799    7.3019 H   0  0  0  0  0  0
    0.3808   -2.2948    8.8704 H   0  0  0  0  0  0
   -0.3794   -4.4965    3.5803 H   0  0  0  0  0  0
   -0.5447   -6.9577    3.5834 H   0  0  0  0  0  0
   -2.5239   -8.0783    2.6147 H   0  0  0  0  0  0
   -7.8708   -3.8548    4.1173 H   0  0  0  0  0  0
   -7.2832   -4.2613    6.4933 H   0  0  0  0  0  0
   -5.9537   -6.2611    7.1175 H   0  0  0  0  0  0
  1  2  1  0  0  0
  1 36  1  0  0  0
  1 37  1  0  0  0
  1 38  1  0  0  0
  2  3  1  0  0  0
  2  4  1  0  0  0
  2  5  1  0  0  0
  3 39  1  0  0  0
  3 40  1  0  0  0
  3 41  1  0  0  0
  4 42  1  0  0  0
  4 43  1  0  0  0
  4 44  1  0  0  0
  5  9  1  0  0  0
  5  6  2  0  0  0
  6  7  1  0  0  0
  7  8  2  0  0  0
  7 17  1  0  0  0
  8  9  1  0  0  0
  8 10  1  0  0  0
 10 15  2  0  0  0
 10 11  1  0  0  0
 11 12  2  0  0  0
 11 45  1  0  0  0
 12 13  1  0  0  0
 12 46  1  0  0  0
 13 14  2  0  0  0
 14 15  1  0  0  0
 14 16  1  0  0  0
 16 47  1  0  0  0
 16 48  1  0  0  0
 17 22  2  0  0  0
 17 18  1  0  0  0
 18 19  2  0  0  0
 18 49  1  0  0  0
 19 20  1  0  0  0
 19 50  1  0  0  0
 20 21  2  0  0  0
 20 51  1  0  0  0
 21 22  1  0  0  0
 21 24  1  0  0  0
 22 23  1  0  0  0
 24 25  1  0  0  0
 25 26  2  0  0  0
 25 27  2  0  0  0
 25 28  1  0  0  0
 28 33  2  0  0  0
 28 29  1  0  0  0
 29 30  2  0  0  0
 29 35  1  0  0  0
 30 31  1  0  0  0
 30 52  1  0  0  0
 31 32  2  0  0  0
 31 53  1  0  0  0
 32 33  1  0  0  0
 32 54  1  0  0  0
 33 34  1  0  0  0
M  CHG  1  24  -1
M  END
> <s_m_source_file>
/Users/andrea/Development/mcce-charges/epik_inhibitors/output/Dabrafenib/Dabrafenib-input.mol2

> <i_m_source_file_index>
1

> <r_lp_tautomer_probability>
0.999999812000036

> <r_epik_Ionization_Penalty>
  0.2014

> <r_epik_Ionization_Penalty_Charging>
  0.2014

> <r_epik_Ionization_Penalty_Neutral>
  0.0000

> <r_epik_State_Penalty>
  0.1816

> <i_epik_Tot_Q>
-1

$$$$
~{N}-[3-[5-(2-aminopyrimidin-4-yl)-2-~{tert}-butyl-thiazol-4-yl]-2-fluoro-phenyl]-2,6-difluoro-benzenesulfonamide
                    3D
 Structure written by MMmdl.
 55 58  0  0  1  0            999 V2000
   -0.7704    1.1243    0.7246 C   0  0  0  0  0  0
   -2.0904    0.3299    0.6216 C   0  0  0  0  0  0
   -3.2789    1.2876    0.8548 C   0  0  0  0  0  0
   -2.1995   -0.1873   -0.8307 C   0  0  0  0  0  0
   -2.1077   -0.7840    1.6815 C   0  0  0  0  0  0
   -2.2053   -2.0668    1.4112 N   0  0  0  0  0  0
   -2.1915   -2.7753    2.5968 C   0  0  0  0  0  0
   -2.0846   -2.0224    3.7475 C   0  0  0  0  0  0
   -1.9952   -0.3589    3.3402 S   0  0  0  0  0  0
   -2.0399   -2.4085    5.1380 C   0  0  0  0  0  0
   -3.0793   -3.0998    5.7264 C   0  0  0  0  0  0
   -2.9119   -3.4069    7.0613 C   0  0  0  0  0  0
   -1.8185   -3.0705    7.7766 N   0  0  0  0  0  0
   -0.8750   -2.3985    7.0899 C   0  0  0  0  0  0
   -0.9190   -2.0403    5.7925 N   0  0  0  0  0  0
    0.2847   -2.0306    7.8069 N   0  0  0  0  0  0
   -2.2873   -4.2090    2.5984 C   0  0  0  0  0  0
   -1.2577   -4.9716    3.1498 C   0  0  0  0  0  0
   -1.3462   -6.3637    3.1539 C   0  0  0  0  0  0
   -2.4642   -6.9931    2.6065 C   0  0  0  0  0  0
   -3.4937   -6.2304    2.0551 C   0  0  0  0  0  0
   -3.4053   -4.8383    2.0510 C   0  0  0  0  0  0
   -4.3989   -4.1093    1.5188 F   0  0  0  0  0  0
   -4.6360   -6.8785    1.4949 N   0  0  0  0  0  0
   -5.5977   -7.8873    2.5075 S   0  0  0  0  0  0
   -6.7853   -8.2929    1.7791 O   0  0  0  0  0  0
   -4.7656   -8.8899    3.1443 O   0  0  0  0  0  0
   -6.1261   -6.7507    3.7572 C   0  0  0  0  0  0
   -6.8731   -5.6261    3.4063 C   0  0  0  0  0  0
   -7.2894   -4.7303    4.3911 C   0  0  0  0  0  0
   -6.9586   -4.9589    5.7268 C   0  0  0  0  0  0
   -6.2116   -6.0835    6.0776 C   0  0  0  0  0  0
   -5.7953   -6.9793    5.0928 C   0  0  0  0  0  0
   -5.0783   -8.0566    5.4423 F   0  0  0  0  0  0
   -7.1967   -5.3955    2.1261 F   0  0  0  0  0  0
    0.0796    0.4460    0.5591 H   0  0  0  0  0  0
   -0.6907    1.5748    1.7250 H   0  0  0  0  0  0
   -0.7598    1.9180   -0.0369 H   0  0  0  0  0  0
   -4.2220    0.7260    0.7824 H   0  0  0  0  0  0
   -3.2652    2.0811    0.0931 H   0  0  0  0  0  0
   -3.1961    1.7379    1.8550 H   0  0  0  0  0  0
   -3.1307   -0.7612   -0.9465 H   0  0  0  0  0  0
   -1.3392   -0.8351   -1.0548 H   0  0  0  0  0  0
   -2.2062    0.6664   -1.5244 H   0  0  0  0  0  0
   -3.9738   -3.3883    5.1885 H   0  0  0  0  0  0
   -3.6761   -3.9474    7.6095 H   0  0  0  0  0  0
    1.0920   -1.4799    7.3019 H   0  0  0  0  0  0
    0.3808   -2.2948    8.8704 H   0  0  0  0  0  0
   -0.3794   -4.4965    3.5803 H   0  0  0  0  0  0
   -0.5447   -6.9577    3.5834 H   0  0  0  0  0  0
   -2.5239   -8.0783    2.6147 H   0  0  0  0  0  0
   -4.9063   -6.7432    0.4373 H   0  0  0  0  0  0
   -7.8708   -3.8548    4.1173 H   0  0  0  0  0  0
   -7.2832   -4.2613    6.4933 H   0  0  0  0  0  0
   -5.9537   -6.2611    7.1175 H   0  0  0  0  0  0
  1  2  1  0  0  0
  1 36  1  0  0  0
  1 37  1  0  0  0
  1 38  1  0  0  0
  2  3  1  0  0  0
  2  4  1  0  0  0
  2  5  1  0  0  0
  3 39  1  0  0  0
  3 40  1  0  0  0
  3 41  1  0  0  0
  4 42  1  0  0  0
  4 43  1  0  0  0
  4 44  1  0  0  0
  5  9  1  0  0  0
  5  6  2  0  0  0
  6  7  1  0  0  0
  7  8  2  0  0  0
  7 17  1  0  0  0
  8  9  1  0  0  0
  8 10  1  0  0  0
 10 15  2  0  0  0
 10 11  1  0  0  0
 11 12  2  0  0  0
 11 45  1  0  0  0
 12 13  1  0  0  0
 12 46  1  0  0  0
 13 14  2  0  0  0
 14 15  1  0  0  0
 14 16  1  0  0  0
 16 47  1  0  0  0
 16 48  1  0  0  0
 17 22  2  0  0  0
 17 18  1  0  0  0
 18 19  2  0  0  0
 18 49  1  0  0  0
 19 20  1  0  0  0
 19 50  1  0  0  0
 20 21  2  0  0  0
 20 51  1  0  0  0
 21 22  1  0  0  0
 21 24  1  0  0  0
 22 23  1  0  0  0
 24 25  1  0  0  0
 24 52  1  0  0  0
 25 26  2  0  0  0
 25 27  2  0  0  0
 25 28  1  0  0  0
 28 33  2  0  0  0
 28 29  1  0  0  0
 29 30  2  0  0  0
 29 35  1  0  0  0
 30 31  1  0  0  0
 30 53  1  0  0  0
 31 32  2  0  0  0
 31 54  1  0  0  0
 32 33  1  0  0  0
 32 55  1  0  0  0
 33 34  1  0  0  0
M  END
> <s_m_source_file>
/Users/andrea/Development/mcce-charges/epik_inhibitors/output/Dabrafenib/Dabrafenib-input.mol2

> <i_m_source_file_index>
1

> <r_lp_tautomer_probability>
0.999999812000036

> <r_epik_Ionization_Penalty>
  0.7372

> <r_epik_Ionization_Penalty_Charging>
  0.0000

> <r_epik_Ionization_Penalty_Neutral>
  0.7372

> <r_epik_State_Penalty>
  0.7901

> <i_epik_Tot_Q>
0

$$$$
~{N}-[3-[5-(2-aminopyrimidin-4-yl)-2-~{tert}-butyl-thiazol-4-yl]-2-fluoro-phenyl]-2,6-difluoro-benzenesulfonamide
                    3D
 Structure written by MMmdl.
 53 56  0  0  1  0            999 V2000
   -0.7704    1.1243    0.7246 C   0  0  0  0  0  0
   -2.0904    0.3299    0.6216 C   0  0  0  0  0  0
   -3.2789    1.2876    0.8548 C   0  0  0  0  0  0
   -2.1995   -0.1873   -0.8307 C   0  0  0  0  0  0
   -2.1077   -0.7840    1.6815 C   0  0  0  0  0  0
   -2.2053   -2.0668    1.4112 N   0  0  0  0  0  0
   -2.1915   -2.7753    2.5968 C   0  0  0  0  0  0
   -2.0846   -2.0224    3.7475 C   0  0  0  0  0  0
   -1.9952   -0.3589    3.3402 S   0  0  0  0  0  0
   -2.0399   -2.4085    5.1380 C   0  0  0  0  0  0
   -3.0793   -3.0998    5.7264 C   0  0  0  0  0  0
   -2.9119   -3.4069    7.0613 C   0  0  0  0  0  0
   -1.8185   -3.0705    7.7766 N   0  0  0  0  0  0
   -0.8750   -2.3985    7.0899 C   0  0  0  0  0  0
   -0.9190   -2.0403    5.7925 N   0  0  0  0  0  0
    0.2847   -2.0306    7.8069 N   0  5  0  0  0  0
   -2.2873   -4.2090    2.5984 C   0  0  0  0  0  0
   -1.2577   -4.9716    3.1498 C   0  0  0  0  0  0
   -1.3462   -6.3637    3.1539 C   0  0  0  0  0  0
   -2.4642   -6.9931    2.6065 C   0  0  0  0  0  0
   -3.4937   -6.2304    2.0551 C   0  0  0  0  0  0
   -3.4053   -4.8383    2.0510 C   0  0  0  0  0  0
   -4.3989   -4.1093    1.5188 F   0  0  0  0  0  0
   -4.6360   -6.8785    1.4949 N   0  5  0  0  0  0
   -5.5977   -7.8873    2.5075 S   0  0  0  0  0  0
   -6.7853   -8.2929    1.7791 O   0  0  0  0  0  0
   -4.7656   -8.8899    3.1443 O   0  0  0  0  0  0
   -6.1261   -6.7507    3.7572 C   0  0  0  0  0  0
   -6.8731   -5.6261    3.4063 C   0  0  0  0  0  0
   -7.2894   -4.7303    4.3911 C   0  0  0  0  0  0
   -6.9586   -4.9589    5.7268 C   0  0  0  0  0  0
   -6.2116   -6.0835    6.0776 C   0  0  0  0  0  0
   -5.7953   -6.9793    5.0928 C   0  0  0  0  0  0
   -5.0783   -8.0566    5.4423 F   0  0  0  0  0  0
   -7.1967   -5.3955    2.1261 F   0  0  0  0  0  0
    0.0796    0.4460    0.5591 H   0  0  0  0  0  0
   -0.6907    1.5748    1.7250 H   0  0  0  0  0  0
   -0.7598    1.9180   -0.0369 H   0  0  0  0  0  0
   -4.2220    0.7260    0.7824 H   0  0  0  0  0  0
   -3.2652    2.0811    0.0931 H   0  0  0  0  0  0
   -3.1961    1.7379    1.8550 H   0  0  0  0  0  0
   -3.1307   -0.7612   -0.9465 H   0  0  0  0  0  0
   -1.3392   -0.8351   -1.0548 H   0  0  0  0  0  0
   -2.2062    0.6664   -1.5244 H   0  0  0  0  0  0
   -3.9738   -3.3883    5.1885 H   0  0  0  0  0  0
   -3.6761   -3.9474    7.6095 H   0  0  0  0  0  0
    1.0920   -1.4799    7.3019 H   0  0  0  0  0  0
   -0.3794   -4.4965    3.5803 H   0  0  0  0  0  0
   -0.5447   -6.9577    3.5834 H   0  0  0  0  0  0
   -2.5239   -8.0783    2.6147 H   0  0  0  0  0  0
   -7.8708   -3.8548    4.1173 H   0  0  0  0  0  0
   -7.2832   -4.2613    6.4933 H   0  0  0  0  0  0
   -5.9537   -6.2611    7.1175 H   0  0  0  0  0  0
  1  2  1  0  0  0
  1 36  1  0  0  0
  1 37  1  0  0  0
  1 38  1  0  0  0
  2  3  1  0  0  0
  2  4  1  0  0  0
  2  5  1  0  0  0
  3 39  1  0  0  0
  3 40  1  0  0  0
  3 41  1  0  0  0
  4 42  1  0  0  0
  4 43  1  0  0  0
  4 44  1  0  0  0
  5  9  1  0  0  0
  5  6  2  0  0  0
  6  7  1  0  0  0
  7  8  2  0  0  0
  7 17  1  0  0  0
  8  9  1  0  0  0
  8 10  1  0  0  0
 10 15  2  0  0  0
 10 11  1  0  0  0
 11 12  2  0  0  0
 11 45  1  0  0  0
 12 13  1  0  0  0
 12 46  1  0  0  0
 13 14  2  0  0  0
 14 15  1  0  0  0
 14 16  1  0  0  0
 16 47  1  0  0  0
 17 22  2  0  0  0
 17 18  1  0  0  0
 18 19  2  0  0  0
 18 48  1  0  0  0
 19 20  1  0  0  0
 19 49  1  0  0  0
 20 21  2  0  0  0
 20 50  1  0  0  0
 21 22  1  0  0  0
 21 24  1  0  0  0
 22 23  1  0  0  0
 24 25  1  0  0  0
 25 26  2  0  0  0
 25 27  2  0  0  0
 25 28  1  0  0  0
 28 33  2  0  0  0
 28 29  1  0  0  0
 29 30  2  0  0  0
 29 35  1  0  0  0
 30 31  1  0  0  0
 30 51  1  0  0  0
 31 32  2  0  0  0
 31 52  1  0  0  0
 32 33  1  0  0  0
 32 53  1  0  0  0
 33 34  1  0  0  0
M  CHG  2  16  -1  24  -1
M  END
> <s_m_source_file>
/Users/andrea/Development/mcce-charges/epik_inhibitors/output/Dabrafenib/Dabrafenib-input.mol2

> <i_m_source_file_index>
1

> <r_epik_Ionization_Penalty>
  8.0611

> <r_epik_Ionization_Penalty_Charging>
  8.0611

> <r_epik_Ionization_Penalty_Neutral>
  0.0000

> <r_epik_State_Penalty>
  4.6832

> <i_epik_Tot_Q>
-2

$$$$
~{N}-[3-[5-(2-aminopyrimidin-4-yl)-2-~{tert}-butyl-thiazol-4-yl]-2-fluoro-phenyl]-2,6-difluoro-benzenesulfonamide
                    3D
 Structure written by MMmdl.
 54 57  0  0  1  0            999 V2000
   -0.7704    1.1243    0.7246 C   0  0  0  0  0  0
   -2.0904    0.3299    0.6216 C   0  0  0  0  0  0
   -3.2789    1.2876    0.8548 C   0  0  0  0  0  0
   -2.1995   -0.1873   -0.8307 C   0  0  0  0  0  0
   -2.1077   -0.7840    1.6815 C   0  0  0  0  0  0
   -2.2053   -2.0668    1.4112 N   0  0  0  0  0  0
   -2.1915   -2.7753    2.5968 C   0  0  0  0  0  0
   -2.0846   -2.0224    3.7475 C   0  0  0  0  0  0
   -1.9952   -0.3589    3.3402 S   0  0  0  0  0  0
   -2.0399   -2.4085    5.1380 C   0  0  0  0  0  0
   -3.0793   -3.0998    5.7264 C   0  0  0  0  0  0
   -2.9119   -3.4069    7.0613 C   0  0  0  0  0  0
   -1.8185   -3.0705    7.7766 N   0  0  0  0  0  0
   -0.8750   -2.3985    7.0899 C   0  0  0  0  0  0
   -0.9190   -2.0403    5.7925 N   0  0  0  0  0  0
    0.2847   -2.0306    7.8069 N   0  5  0  0  0  0
   -2.2873   -4.2090    2.5984 C   0  0  0  0  0  0
   -1.2577   -4.9716    3.1498 C   0  0  0  0  0  0
   -1.3462   -6.3637    3.1539 C   0  0  0  0  0  0
   -2.4642   -6.9931    2.6065 C   0  0  0  0  0  0
   -3.4937   -6.2304    2.0551 C   0  0  0  0  0  0
   -3.4053   -4.8383    2.0510 C   0  0  0  0  0  0
   -4.3989   -4.1093    1.5188 F   0  0  0  0  0  0
   -4.6360   -6.8785    1.4949 N   0  0  0  0  0  0
   -5.5977   -7.8873    2.5075 S   0  0  0  0  0  0
   -6.7853   -8.2929    1.7791 O   0  0  0  0  0  0
   -4.7656   -8.8899    3.1443 O   0  0  0  0  0  0
   -6.1261   -6.7507    3.7572 C   0  0  0  0  0  0
   -6.8731   -5.6261    3.4063 C   0  0  0  0  0  0
   -7.2894   -4.7303    4.3911 C   0  0  0  0  0  0
   -6.9586   -4.9589    5.7268 C   0  0  0  0  0  0
   -6.2116   -6.0835    6.0776 C   0  0  0  0  0  0
   -5.7953   -6.9793    5.0928 C   0  0  0  0  0  0
   -5.0783   -8.0566    5.4423 F   0  0  0  0  0  0
   -7.1967   -5.3955    2.1261 F   0  0  0  0  0  0
    0.0796    0.4460    0.5591 H   0  0  0  0  0  0
   -0.6907    1.5748    1.7250 H   0  0  0  0  0  0
   -0.7598    1.9180   -0.0369 H   0  0  0  0  0  0
   -4.2220    0.7260    0.7824 H   0  0  0  0  0  0
   -3.2652    2.0811    0.0931 H   0  0  0  0  0  0
   -3.1961    1.7379    1.8550 H   0  0  0  0  0  0
   -3.1307   -0.7612   -0.9465 H   0  0  0  0  0  0
   -1.3392   -0.8351   -1.0548 H   0  0  0  0  0  0
   -2.2062    0.6664   -1.5244 H   0  0  0  0  0  0
   -3.9738   -3.3883    5.1885 H   0  0  0  0  0  0
   -3.6761   -3.9474    7.6095 H   0  0  0  0  0  0
    1.0920   -1.4799    7.3019 H   0  0  0  0  0  0
   -0.3794   -4.4965    3.5803 H   0  0  0  0  0  0
   -0.5447   -6.9577    3.5834 H   0  0  0  0  0  0
   -2.5239   -8.0783    2.6147 H   0  0  0  0  0  0
   -4.9063   -6.7432    0.4373 H   0  0  0  0  0  0
   -7.8708   -3.8548    4.1173 H   0  0  0  0  0  0
   -7.2832   -4.2613    6.4933 H   0  0  0  0  0  0
   -5.9537   -6.2611    7.1175 H   0  0  0  0  0  0
  1  2  1  0  0  0
  1 36  1  0  0  0
  1 37  1  0  0  0
  1 38  1  0  0  0
  2  3  1  0  0  0
  2  4  1  0  0  0
  2  5  1  0  0  0
  3 39  1  0  0  0
  3 40  1  0  0  0
  3 41  1  0  0  0
  4 42  1  0  0  0
  4 43  1  0  0  0
  4 44  1  0  0  0
  5  9  1  0  0  0
  5  6  2  0  0  0
  6  7  1  0  0  0
  7  8  2  0  0  0
  7 17  1  0  0  0
  8  9  1  0  0  0
  8 10  1  0  0  0
 10 15  2  0  0  0
 10 11  1  0  0  0
 11 12  2  0  0  0
 11 45  1  0  0  0
 12 13  1  0  0  0
 12 46  1  0  0  0
 13 14  2  0  0  0
 14 15  1  0  0  0
 14 16  1  0  0  0
 16 47  1  0  0  0
 17 22  2  0  0  0
 17 18  1  0  0  0
 18 19  2  0  0  0
 18 48  1  0  0  0
 19 20  1  0  0  0
 19 49  1  0  0  0
 20 21  2  0  0  0
 20 50  1  0  0  0
 21 22  1  0  0  0
 21 24  1  0  0  0
 22 23  1  0  0  0
 24 25  1  0  0  0
 24 51  1  0  0  0
 25 26  2  0  0  0
 25 27  2  0  0  0
 25 28  1  0  0  0
 28 33  2  0  0  0
 28 29  1  0  0  0
 29 30  2  0  0  0
 29 35  1  0  0  0
 30 31  1  0  0  0
 30 52  1  0  0  0
 31 32  2  0  0  0
 31 53  1  0  0  0
 32 33  1  0  0  0
 32 54  1  0  0  0
 33 34  1  0  0  0
M  CHG  1  16  -1
M  END
> <s_m_source_file>
/Users/andrea/Development/mcce-charges/epik_inhibitors/output/Dabrafenib/Dabrafenib-input.mol2

> <i_m_source_file_index>
1

> <r_epik_Ionization_Penalty>
  8.5969

> <r_epik_Ionization_Penalty_Charging>
  7.8597

> <r_epik_Ionization_Penalty_Neutral>
  0.7372

> <r_epik_State_Penalty>
  5.2550

> <i_epik_Tot_Q>
-1

$$$$
~{N}-[3-[5-(2-aminopyrimidin-4-yl)-2-~{tert}-butyl-thiazol-4-yl]-2-fluoro-phenyl]-2,6-difluoro-benzenesulfonamide
                    3D
 Structure written by MMmdl.
 55 58  0  0  1  0            999 V2000
   -0.7704    1.1243    0.7246 C   0  0  0  0  0  0
   -2.0904    0.3299    0.6216 C   0  0  0  0  0  0
   -3.2789    1.2876    0.8548 C   0  0  0  0  0  0
   -2.1995   -0.1873   -0.8307 C   0  0  0  0  0  0
   -2.1077   -0.7840    1.6815 C   0  0  0  0  0  0
   -2.2053   -2.0668    1.4112 N   0  3  0  0  0  0
   -2.1915   -2.7753    2.5968 C   0  0  0  0  0  0
   -2.0846   -2.0224    3.7475 C   0  0  0  0  0  0
   -1.9952   -0.3589    3.3402 S   0  0  0  0  0  0
   -2.0399   -2.4085    5.1380 C   0  0  0  0  0  0
   -3.0793   -3.0998    5.7264 C   0  0  0  0  0  0
   -2.9119   -3.4069    7.0613 C   0  0  0  0  0  0
   -1.8185   -3.0705    7.7766 N   0  0  0  0  0  0
   -0.8750   -2.3985    7.0899 C   0  0  0  0  0  0
   -0.9190   -2.0403    5.7925 N   0  0  0  0  0  0
    0.2847   -2.0306    7.8069 N   0  0  0  0  0  0
   -2.2873   -4.2090    2.5984 C   0  0  0  0  0  0
   -1.2577   -4.9716    3.1498 C   0  0  0  0  0  0
   -1.3462   -6.3637    3.1539 C   0  0  0  0  0  0
   -2.4642   -6.9931    2.6065 C   0  0  0  0  0  0
   -3.4937   -6.2304    2.0551 C   0  0  0  0  0  0
   -3.4053   -4.8383    2.0510 C   0  0  0  0  0  0
   -4.3989   -4.1093    1.5188 F   0  0  0  0  0  0
   -4.6360   -6.8785    1.4949 N   0  5  0  0  0  0
   -5.5977   -7.8873    2.5075 S   0  0  0  0  0  0
   -6.7853   -8.2929    1.7791 O   0  0  0  0  0  0
   -4.7656   -8.8899    3.1443 O   0  0  0  0  0  0
   -6.1261   -6.7507    3.7572 C   0  0  0  0  0  0
   -6.8731   -5.6261    3.4063 C   0  0  0  0  0  0
   -7.2894   -4.7303    4.3911 C   0  0  0  0  0  0
   -6.9586   -4.9589    5.7268 C   0  0  0  0  0  0
   -6.2116   -6.0835    6.0776 C   0  0  0  0  0  0
   -5.7953   -6.9793    5.0928 C   0  0  0  0  0  0
   -5.0783   -8.0566    5.4423 F   0  0  0  0  0  0
   -7.1967   -5.3955    2.1261 F   0  0  0  0  0  0
    0.0796    0.4460    0.5591 H   0  0  0  0  0  0
   -0.6907    1.5748    1.7250 H   0  0  0  0  0  0
   -0.7598    1.9180   -0.0369 H   0  0  0  0  0  0
   -4.2220    0.7260    0.7824 H   0  0  0  0  0  0
   -3.2652    2.0811    0.0931 H   0  0  0  0  0  0
   -3.1961    1.7379    1.8550 H   0  0  0  0  0  0
   -3.1307   -0.7612   -0.9465 H   0  0  0  0  0  0
   -1.3392   -0.8351   -1.0548 H   0  0  0  0  0  0
   -2.2062    0.6664   -1.5244 H   0  0  0  0  0  0
   -3.9738   -3.3883    5.1885 H   0  0  0  0  0  0
   -3.6761   -3.9474    7.6095 H   0  0  0  0  0  0
    1.0920   -1.4799    7.3019 H   0  0  0  0  0  0
    0.3808   -2.2948    8.8704 H   0  0  0  0  0  0
   -0.3794   -4.4965    3.5803 H   0  0  0  0  0  0
   -0.5447   -6.9577    3.5834 H   0  0  0  0  0  0
   -2.5239   -8.0783    2.6147 H   0  0  0  0  0  0
   -7.8708   -3.8548    4.1173 H   0  0  0  0  0  0
   -7.2832   -4.2613    6.4933 H   0  0  0  0  0  0
   -5.9537   -6.2611    7.1175 H   0  0  0  0  0  0
   -2.2804   -2.4047    0.3671 H   0  0  0  0  0  0
  1  2  1  0  0  0
  1 36  1  0  0  0
  1 37  1  0  0  0
  1 38  1  0  0  0
  2  3  1  0  0  0
  2  4  1  0  0  0
  2  5  1  0  0  0
  3 39  1  0  0  0
  3 40  1  0  0  0
  3 41  1  0  0  0
  4 42  1  0  0  0
  4 43  1  0  0  0
  4 44  1  0  0  0
  5  9  1  0  0  0
  5  6  2  0  0  0
  6  7  1  0  0  0
  6 55  1  0  0  0
  7  8  2  0  0  0
  7 17  1  0  0  0
  8  9  1  0  0  0
  8 10  1  0  0  0
 10 15  2  0  0  0
 10 11  1  0  0  0
 11 12  2  0  0  0
 11 45  1  0  0  0
 12 13  1  0  0  0
 12 46  1  0  0  0
 13 14  2  0  0  0
 14 15  1  0  0  0
 14 16  1  0  0  0
 16 47  1  0  0  0
 16 48  1  0  0  0
 17 22  2  0  0  0
 17 18  1  0  0  0
 18 19  2  0  0  0
 18 49  1  0  0  0
 19 20  1  0  0  0
 19 50  1  0  0  0
 20 21  2  0  0  0
 20 51  1  0  0  0
 21 22  1  0  0  0
 21 24  1  0  0  0
 22 23  1  0  0  0
 24 25  1  0  0  0
 25 26  2  0  0  0
 25 27  2  0  0  0
 25 28  1  0  0  0
 28 33  2  0  0  0
 28 29  1  0  0  0
 29 30  2  0  0  0
 29 35  1  0  0  0
 30 31  1  0  0  0
 30 52  1  0  0  0
 31 32  2  0  0  0
 31 53  1  0  0  0
 32 33  1  0  0  0
 32 54  1  0  0  0
 33 34  1  0  0  0
M  CHG  2   6   1  24  -1
M  END
> <s_m_source_file>
/Users/andrea/Development/mcce-charges/epik_inhibitors/output/Dabrafenib/Dabrafenib-input.mol2

> <i_m_source_file_index>
1

> <r_epik_Ionization_Penalty>
  7.8063

> <r_epik_Ionization_Penalty_Charging>
  7.8063

> <r_epik_Ionization_Penalty_Neutral>
  0.0000

> <r_epik_State_Penalty>
  8.2933

> <i_epik_Tot_Q>
0

$$$$
~{N}-[3-[5-(2-aminopyrimidin-4-yl)-2-~{tert}-butyl-thiazol-4-yl]-2-fluoro-phenyl]-2,6-difluoro-benzenesulfonamide
                    3D
 Structure written by MMmdl.
 56 59  0  0  1  0            999 V2000
   -0.7704    1.1243    0.7246 C   0  0  0  0  0  0
   -2.0904    0.3299    0.6216 C   0  0  0  0  0  0
   -3.2789    1.2876    0.8548 C   0  0  0  0  0  0
   -2.1995   -0.1873   -0.8307 C   0  0  0  0  0  0
   -2.1077   -0.7840    1.6815 C   0  0  0  0  0  0
   -2.2053   -2.0668    1.4112 N   0  3  0  0  0  0
   -2.1915   -2.7753    2.5968 C   0  0  0  0  0  0
   -2.0846   -2.0224    3.7475 C   0  0  0  0  0  0
   -1.9952   -0.3589    3.3402 S   0  0  0  0  0  0
   -2.0399   -2.4085    5.1380 C   0  0  0  0  0  0
   -3.0793   -3.0998    5.7264 C   0  0  0  0  0  0
   -2.9119   -3.4069    7.0613 C   0  0  0  0  0  0
   -1.8185   -3.0705    7.7766 N   0  0  0  0  0  0
   -0.8750   -2.3985    7.0899 C   0  0  0  0  0  0
   -0.9190   -2.0403    5.7925 N   0  0  0  0  0  0
    0.2847   -2.0306    7.8069 N   0  0  0  0  0  0
   -2.2873   -4.2090    2.5984 C   0  0  0  0  0  0
   -1.2577   -4.9716    3.1498 C   0  0  0  0  0  0
   -1.3462   -6.3637    3.1539 C   0  0  0  0  0  0
   -2.4642   -6.9931    2.6065 C   0  0  0  0  0  0
   -3.4937   -6.2304    2.0551 C   0  0  0  0  0  0
   -3.4053   -4.8383    2.0510 C   0  0  0  0  0  0
   -4.3989   -4.1093    1.5188 F   0  0  0  0  0  0
   -4.6360   -6.8785    1.4949 N   0  0  0  0  0  0
   -5.5977   -7.8873    2.5075 S   0  0  0  0  0  0
   -6.7853   -8.2929    1.7791 O   0  0  0  0  0  0
   -4.7656   -8.8899    3.1443 O   0  0  0  0  0  0
   -6.1261   -6.7507    3.7572 C   0  0  0  0  0  0
   -6.8731   -5.6261    3.4063 C   0  0  0  0  0  0
   -7.2894   -4.7303    4.3911 C   0  0  0  0  0  0
   -6.9586   -4.9589    5.7268 C   0  0  0  0  0  0
   -6.2116   -6.0835    6.0776 C   0  0  0  0  0  0
   -5.7953   -6.9793    5.0928 C   0  0  0  0  0  0
   -5.0783   -8.0566    5.4423 F   0  0  0  0  0  0
   -7.1967   -5.3955    2.1261 F   0  0  0  0  0  0
    0.0796    0.4460    0.5591 H   0  0  0  0  0  0
   -0.6907    1.5748    1.7250 H   0  0  0  0  0  0
   -0.7598    1.9180   -0.0369 H   0  0  0  0  0  0
   -4.2220    0.7260    0.7824 H   0  0  0  0  0  0
   -3.2652    2.0811    0.0931 H   0  0  0  0  0  0
   -3.1961    1.7379    1.8550 H   0  0  0  0  0  0
   -3.1307   -0.7612   -0.9465 H   0  0  0  0  0  0
   -1.3392   -0.8351   -1.0548 H   0  0  0  0  0  0
   -2.2062    0.6664   -1.5244 H   0  0  0  0  0  0
   -3.9738   -3.3883    5.1885 H   0  0  0  0  0  0
   -3.6761   -3.9474    7.6095 H   0  0  0  0  0  0
    1.0920   -1.4799    7.3019 H   0  0  0  0  0  0
    0.3808   -2.2948    8.8704 H   0  0  0  0  0  0
   -0.3794   -4.4965    3.5803 H   0  0  0  0  0  0
   -0.5447   -6.9577    3.5834 H   0  0  0  0  0  0
   -2.5239   -8.0783    2.6147 H   0  0  0  0  0  0
   -4.9063   -6.7432    0.4373 H   0  0  0  0  0  0
   -7.8708   -3.8548    4.1173 H   0  0  0  0  0  0
   -7.2832   -4.2613    6.4933 H   0  0  0  0  0  0
   -5.9537   -6.2611    7.1175 H   0  0  0  0  0  0
   -2.2804   -2.4047    0.3671 H   0  0  0  0  0  0
  1  2  1  0  0  0
  1 36  1  0  0  0
  1 37  1  0  0  0
  1 38  1  0  0  0
  2  3  1  0  0  0
  2  4  1  0  0  0
  2  5  1  0  0  0
  3 39  1  0  0  0
  3 40  1  0  0  0
  3 41  1  0  0  0
  4 42  1  0  0  0
  4 43  1  0  0  0
  4 44  1  0  0  0
  5  9  1  0  0  0
  5  6  2  0  0  0
  6  7  1  0  0  0
  6 56  1  0  0  0
  7  8  2  0  0  0
  7 17  1  0  0  0
  8  9  1  0  0  0
  8 10  1  0  0  0
 10 15  2  0  0  0
 10 11  1  0  0  0
 11 12  2  0  0  0
 11 45  1  0  0  0
 12 13  1  0  0  0
 12 46  1  0  0  0
 13 14  2  0  0  0
 14 15  1  0  0  0
 14 16  1  0  0  0
 16 47  1  0  0  0
 16 48  1  0  0  0
 17 22  2  0  0  0
 17 18  1  0  0  0
 18 19  2  0  0  0
 18 49  1  0  0  0
 19 20  1  0  0  0
 19 50  1  0  0  0
 20 21  2  0  0  0
 20 51  1  0  0  0
 21 22  1  0  0  0
 21 24  1  0  0  0
 22 23  1  0  0  0
 24 25  1  0  0  0
 24 52  1  0  0  0
 25 26  2  0  0  0
 25 27  2  0  0  0
 25 28  1  0  0  0
 28 33  2  0  0  0
 28 29  1  0  0  0
 29 30  2  0  0  0
 29 35  1  0  0  0
 30 31  1  0  0  0
 30 53  1  0  0  0
 31 32  2  0  0  0
 31 54  1  0  0  0
 32 33  1  0  0  0
 32 55  1  0  0  0
 33 34  1  0  0  0
M  CHG  1   6   1
M  END
> <s_m_source_file>
/Users/andrea/Development/mcce-charges/epik_inhibitors/output/Dabrafenib/Dabrafenib-input.mol2

> <i_m_source_file_index>
1

> <r_lp_tautomer_probability>
0.999999812000036

> <r_epik_Ionization_Penalty>
  8.5330

> <r_epik_Ionization_Penalty_Charging>
  7.6539

> <r_epik_Ionization_Penalty_Neutral>
  0.8792

> <r_epik_State_Penalty>
  9.0131

> <i_epik_Tot_Q>
1

$$$$
~{N}-[3-[5-(2-aminopyrimidin-4-yl)-2-~{tert}-butyl-thiazol-4-yl]-2-fluoro-phenyl]-2,6-difluoro-benzenesulfonamide
                    3D
 Structure written by MMmdl.
 55 58  0  0  1  0            999 V2000
   -0.7704    1.1243    0.7246 C   0  0  0  0  0  0
   -2.0904    0.3299    0.6216 C   0  0  0  0  0  0
   -3.2789    1.2876    0.8548 C   0  0  0  0  0  0
   -2.1995   -0.1873   -0.8307 C   0  0  0  0  0  0
   -2.1077   -0.7840    1.6815 C   0  0  0  0  0  0
   -2.2053   -2.0668    1.4112 N   0  0  0  0  0  0
   -2.1915   -2.7753    2.5968 C   0  0  0  0  0  0
   -2.0846   -2.0224    3.7475 C   0  0  0  0  0  0
   -1.9952   -0.3589    3.3402 S   0  0  0  0  0  0
   -2.0399   -2.4085    5.1380 C   0  0  0  0  0  0
   -3.0793   -3.0998    5.7264 C   0  0  0  0  0  0
   -2.9119   -3.4069    7.0613 C   0  0  0  0  0  0
   -1.8185   -3.0705    7.7766 N   0  0  0  0  0  0
   -0.8750   -2.3985    7.0899 C   0  0  0  0  0  0
   -0.9190   -2.0403    5.7925 N   0  0  0  0  0  0
    0.2847   -2.0306    7.8069 N   0  3  0  0  0  0
   -2.2873   -4.2090    2.5984 C   0  0  0  0  0  0
   -1.2577   -4.9716    3.1498 C   0  0  0  0  0  0
   -1.3462   -6.3637    3.1539 C   0  0  0  0  0  0
   -2.4642   -6.9931    2.6065 C   0  0  0  0  0  0
   -3.4937   -6.2304    2.0551 C   0  0  0  0  0  0
   -3.4053   -4.8383    2.0510 C   0  0  0  0  0  0
   -4.3989   -4.1093    1.5188 F   0  0  0  0  0  0
   -4.6360   -6.8785    1.4949 N   0  5  0  0  0  0
   -5.5977   -7.8873    2.5075 S   0  0  0  0  0  0
   -6.7853   -8.2929    1.7791 O   0  0  0  0  0  0
   -4.7656   -8.8899    3.1443 O   0  0  0  0  0  0
   -6.1261   -6.7507    3.7572 C   0  0  0  0  0  0
   -6.8731   -5.6261    3.4063 C   0  0  0  0  0  0
   -7.2894   -4.7303    4.3911 C   0  0  0  0  0  0
   -6.9586   -4.9589    5.7268 C   0  0  0  0  0  0
   -6.2116   -6.0835    6.0776 C   0  0  0  0  0  0
   -5.7953   -6.9793    5.0928 C   0  0  0  0  0  0
   -5.0783   -8.0566    5.4423 F   0  0  0  0  0  0
   -7.1967   -5.3955    2.1261 F   0  0  0  0  0  0
    0.0796    0.4460    0.5591 H   0  0  0  0  0  0
   -0.6907    1.5748    1.7250 H   0  0  0  0  0  0
   -0.7598    1.9180   -0.0369 H   0  0  0  0  0  0
   -4.2220    0.7260    0.7824 H   0  0  0  0  0  0
   -3.2652    2.0811    0.0931 H   0  0  0  0  0  0
   -3.1961    1.7379    1.8550 H   0  0  0  0  0  0
   -3.1307   -0.7612   -0.9465 H   0  0  0  0  0  0
   -1.3392   -0.8351   -1.0548 H   0  0  0  0  0  0
   -2.2062    0.6664   -1.5244 H   0  0  0  0  0  0
   -3.9738   -3.3883    5.1885 H   0  0  0  0  0  0
   -3.6761   -3.9474    7.6095 H   0  0  0  0  0  0
    0.9729   -1.4915    7.1393 H   0  0  0  0  0  0
    0.7799   -2.9343    8.1918 H   0  0  0  0  0  0
   -0.3794   -4.4965    3.5803 H   0  0  0  0  0  0
   -0.5447   -6.9577    3.5834 H   0  0  0  0  0  0
   -2.5239   -8.0783    2.6147 H   0  0  0  0  0  0
   -7.8708   -3.8548    4.1173 H   0  0  0  0  0  0
   -7.2832   -4.2613    6.4933 H   0  0  0  0  0  0
   -5.9537   -6.2611    7.1175 H   0  0  0  0  0  0
    0.0046   -1.3795    8.6481 H   0  0  0  0  0  0
  1  2  1  0  0  0
  1 36  1  0  0  0
  1 37  1  0  0  0
  1 38  1  0  0  0
  2  3  1  0  0  0
  2  4  1  0  0  0
  2  5  1  0  0  0
  3 39  1  0  0  0
  3 40  1  0  0  0
  3 41  1  0  0  0
  4 42  1  0  0  0
  4 43  1  0  0  0
  4 44  1  0  0  0
  5  9  1  0  0  0
  5  6  2  0  0  0
  6  7  1  0  0  0
  7  8  2  0  0  0
  7 17  1  0  0  0
  8  9  1  0  0  0
  8 10  1  0  0  0
 10 15  2  0  0  0
 10 11  1  0  0  0
 11 12  2  0  0  0
 11 45  1  0  0  0
 12 13  1  0  0  0
 12 46  1  0  0  0
 13 14  2  0  0  0
 14 15  1  0  0  0
 14 16  1  0  0  0
 16 47  1  0  0  0
 16 48  1  0  0  0
 16 55  1  0  0  0
 17 22  2  0  0  0
 17 18  1  0  0  0
 18 19  2  0  0  0
 18 49  1  0  0  0
 19 20  1  0  0  0
 19 50  1  0  0  0
 20 21  2  0  0  0
 20 51  1  0  0  0
 21 22  1  0  0  0
 21 24  1  0  0  0
 22 23  1  0  0  0
 24 25  1  0  0  0
 25 26  2  0  0  0
 25 27  2  0  0  0
 25 28  1  0  0  0
 28 33  2  0  0  0
 28 29  1  0  0  0
 29 30  2  0  0  0
 29 35  1  0  0  0
 30 31  1  0  0  0
 30 52  1  0  0  0
 31 32  2  0  0  0
 31 53  1  0  0  0
 32 33  1  0  0  0
 32 54  1  0  0  0
 33 34  1  0  0  0
M  CHG  2  16   1  24  -1
M  END
> <s_m_source_file>
/Users/andrea/Development/mcce-charges/epik_inhibitors/output/Dabrafenib/Dabrafenib-input.mol2

> <i_m_source_file_index>
1

> <r_epik_Ionization_Penalty>
  9.8147

> <r_epik_Ionization_Penalty_Charging>
  9.8147

> <r_epik_Ionization_Penalty_Neutral>
  0.0000

> <r_epik_State_Penalty>
 10.4521

> <i_epik_Tot_Q>
0

$$$$
~{N}-[3-[5-(2-aminopyrimidin-4-yl)-2-~{tert}-butyl-thiazol-4-yl]-2-fluoro-phenyl]-2,6-difluoro-benzenesulfonamide
                    3D
 Structure written by MMmdl.
 56 59  0  0  1  0            999 V2000
   -0.7704    1.1243    0.7246 C   0  0  0  0  0  0
   -2.0904    0.3299    0.6216 C   0  0  0  0  0  0
   -3.2789    1.2876    0.8548 C   0  0  0  0  0  0
   -2.1995   -0.1873   -0.8307 C   0  0  0  0  0  0
   -2.1077   -0.7840    1.6815 C   0  0  0  0  0  0
   -2.2053   -2.0668    1.4112 N   0  0  0  0  0  0
   -2.1915   -2.7753    2.5968 C   0  0  0  0  0  0
   -2.0846   -2.0224    3.7475 C   0  0  0  0  0  0
   -1.9952   -0.3589    3.3402 S   0  0  0  0  0  0
   -2.0399   -2.4085    5.1380 C   0  0  0  0  0  0
   -3.0793   -3.0998    5.7264 C   0  0  0  0  0  0
   -2.9119   -3.4069    7.0613 C   0  0  0  0  0  0
   -1.8185   -3.0705    7.7766 N   0  0  0  0  0  0
   -0.8750   -2.3985    7.0899 C   0  0  0  0  0  0
   -0.9190   -2.0403    5.7925 N   0  0  0  0  0  0
    0.2847   -2.0306    7.8069 N   0  3  0  0  0  0
   -2.2873   -4.2090    2.5984 C   0  0  0  0  0  0
   -1.2577   -4.9716    3.1498 C   0  0  0  0  0  0
   -1.3462   -6.3637    3.1539 C   0  0  0  0  0  0
   -2.4642   -6.9931    2.6065 C   0  0  0  0  0  0
   -3.4937   -6.2304    2.0551 C   0  0  0  0  0  0
   -3.4053   -4.8383    2.0510 C   0  0  0  0  0  0
   -4.3989   -4.1093    1.5188 F   0  0  0  0  0  0
   -4.6360   -6.8785    1.4949 N   0  0  0  0  0  0
   -5.5977   -7.8873    2.5075 S   0  0  0  0  0  0
   -6.7853   -8.2929    1.7791 O   0  0  0  0  0  0
   -4.7656   -8.8899    3.1443 O   0  0  0  0  0  0
   -6.1261   -6.7507    3.7572 C   0  0  0  0  0  0
   -6.8731   -5.6261    3.4063 C   0  0  0  0  0  0
   -7.2894   -4.7303    4.3911 C   0  0  0  0  0  0
   -6.9586   -4.9589    5.7268 C   0  0  0  0  0  0
   -6.2116   -6.0835    6.0776 C   0  0  0  0  0  0
   -5.7953   -6.9793    5.0928 C   0  0  0  0  0  0
   -5.0783   -8.0566    5.4423 F   0  0  0  0  0  0
   -7.1967   -5.3955    2.1261 F   0  0  0  0  0  0
    0.0796    0.4460    0.5591 H   0  0  0  0  0  0
   -0.6907    1.5748    1.7250 H   0  0  0  0  0  0
   -0.7598    1.9180   -0.0369 H   0  0  0  0  0  0
   -4.2220    0.7260    0.7824 H   0  0  0  0  0  0
   -3.2652    2.0811    0.0931 H   0  0  0  0  0  0
   -3.1961    1.7379    1.8550 H   0  0  0  0  0  0
   -3.1307   -0.7612   -0.9465 H   0  0  0  0  0  0
   -1.3392   -0.8351   -1.0548 H   0  0  0  0  0  0
   -2.2062    0.6664   -1.5244 H   0  0  0  0  0  0
   -3.9738   -3.3883    5.1885 H   0  0  0  0  0  0
   -3.6761   -3.9474    7.6095 H   0  0  0  0  0  0
    0.9729   -1.4915    7.1393 H   0  0  0  0  0  0
    0.7799   -2.9343    8.1918 H   0  0  0  0  0  0
   -0.3794   -4.4965    3.5803 H   0  0  0  0  0  0
   -0.5447   -6.9577    3.5834 H   0  0  0  0  0  0
   -2.5239   -8.0783    2.6147 H   0  0  0  0  0  0
   -4.9063   -6.7432    0.4373 H   0  0  0  0  0  0
   -7.8708   -3.8548    4.1173 H   0  0  0  0  0  0
   -7.2832   -4.2613    6.4933 H   0  0  0  0  0  0
   -5.9537   -6.2611    7.1175 H   0  0  0  0  0  0
    0.0046   -1.3795    8.6481 H   0  0  0  0  0  0
  1  2  1  0  0  0
  1 36  1  0  0  0
  1 37  1  0  0  0
  1 38  1  0  0  0
  2  3  1  0  0  0
  2  4  1  0  0  0
  2  5  1  0  0  0
  3 39  1  0  0  0
  3 40  1  0  0  0
  3 41  1  0  0  0
  4 42  1  0  0  0
  4 43  1  0  0  0
  4 44  1  0  0  0
  5  9  1  0  0  0
  5  6  2  0  0  0
  6  7  1  0  0  0
  7  8  2  0  0  0
  7 17  1  0  0  0
  8  9  1  0  0  0
  8 10  1  0  0  0
 10 15  2  0  0  0
 10 11  1  0  0  0
 11 12  2  0  0  0
 11 45  1  0  0  0
 12 13  1  0  0  0
 12 46  1  0  0  0
 13 14  2  0  0  0
 14 15  1  0  0  0
 14 16  1  0  0  0
 16 47  1  0  0  0
 16 48  1  0  0  0
 16 56  1  0  0  0
 17 22  2  0  0  0
 17 18  1  0  0  0
 18 19  2  0  0  0
 18 49  1  0  0  0
 19 20  1  0  0  0
 19 50  1  0  0  0
 20 21  2  0  0  0
 20 51  1  0  0  0
 21 22  1  0  0  0
 21 24  1  0  0  0
 22 23  1  0  0  0
 24 25  1  0  0  0
 24 52  1  0  0  0
 25 26  2  0  0  0
 25 27  2  0  0  0
 25 28  1  0  0  0
 28 33  2  0  0  0
 28 29  1  0  0  0
 29 30  2  0  0  0
 29 35  1  0  0  0
 30 31  1  0  0  0
 30 53  1  0  0  0
 31 32  2  0  0  0
 31 54  1  0  0  0
 32 33  1  0  0  0
 32 55  1  0  0  0
 33 34  1  0  0  0
M  CHG  1  16   1
M  END
> <s_m_source_file>
/Users/andrea/Development/mcce-charges/epik_inhibitors/output/Dabrafenib/Dabrafenib-input.mol2

> <i_m_source_file_index>
1

> <r_epik_Ionization_Penalty>
 10.3505

> <r_epik_Ionization_Penalty_Charging>
  9.6133

> <r_epik_Ionization_Penalty_Neutral>
  0.7372

> <r_epik_State_Penalty>
 11.0361

> <i_epik_Tot_Q>
1

$$$$
~{N}-[3-[5-(2-aminopyrimidin-4-yl)-2-~{tert}-butyl-thiazol-4-yl]-2-fluoro-phenyl]-2,6-difluoro-benzenesulfonamide
                    3D
 Structure written by MMmdl.
 54 57  0  0  1  0            999 V2000
   -0.7691    1.1225    0.7234 C   0  0  0  0  0  0
   -2.0893    0.3283    0.6205 C   0  0  0  0  0  0
   -3.2776    1.2864    0.8531 C   0  0  0  0  0  0
   -2.1983   -0.1895   -0.8316 C   0  0  0  0  0  0
   -2.1070   -0.7851    1.6809 C   0  0  0  0  0  0
   -2.2049   -2.0680    1.4111 N   0  0  0  0  0  0
   -2.1914   -2.7760    2.5971 C   0  0  0  0  0  0
   -2.0845   -2.0226    3.7474 C   0  0  0  0  0  0
   -1.9946   -0.3593    3.3394 S   0  0  0  0  0  0
   -2.0401   -2.4081    5.1381 C   0  0  0  0  0  0
   -3.0793   -3.0998    5.7264 C   0  0  0  0  0  0
   -2.9117   -3.4073    7.0612 C   0  0  0  0  0  0
   -1.8185   -3.0705    7.7766 N   0  0  0  0  0  0
   -0.8750   -2.3985    7.0899 C   0  0  0  0  0  0
   -0.9192   -2.0399    5.7926 N   0  0  0  0  0  0
    0.2847   -2.0306    7.8069 N   0  0  0  0  0  0
   -2.2876   -4.2096    2.5993 C   0  0  0  0  0  0
   -1.2582   -4.9722    3.1512 C   0  0  0  0  0  0
   -1.3471   -6.3643    3.1559 C   0  0  0  0  0  0
   -2.4652   -6.9937    2.6086 C   0  0  0  0  0  0
   -3.4944   -6.2310    2.0567 C   0  0  0  0  0  0
   -3.4056   -4.8389    2.0520 C   0  0  0  0  0  0
   -4.3990   -4.1099    1.5193 F   0  0  0  0  0  0
   -4.6368   -6.8790    1.4966 N   0  5  0  0  0  0
   -5.5989   -7.8872    2.5095 S   0  0  0  0  0  0
   -6.7865   -8.2928    1.7811 O   0  0  0  0  0  0
   -4.7671   -8.8897    3.1469 O   0  0  0  0  0  0
   -6.1272   -6.7499    3.7586 C   0  0  0  0  0  0
   -6.8738   -5.6253    3.4071 C   0  0  0  0  0  0
   -7.2901   -4.7289    4.3915 C   0  0  0  0  0  0
   -6.9595   -4.9570    5.7273 C   0  0  0  0  0  0
   -6.2128   -6.0816    6.0787 C   0  0  0  0  0  0
   -5.7966   -6.9780    5.0944 C   0  0  0  0  0  0
   -5.0799   -8.0553    5.4444 F   0  0  0  0  0  0
   -7.1972   -5.3951    2.1268 F   0  0  0  0  0  0
    0.0808    0.4439    0.5583 H   0  0  0  0  0  0
   -0.6894    1.5734    1.7235 H   0  0  0  0  0  0
   -0.7582    1.9159   -0.0385 H   0  0  0  0  0  0
   -4.2208    0.7251    0.7808 H   0  0  0  0  0  0
   -3.2636    2.0796    0.0911 H   0  0  0  0  0  0
   -3.1948    1.7371    1.8531 H   0  0  0  0  0  0
   -3.1296   -0.7632   -0.9473 H   0  0  0  0  0  0
   -1.3381   -0.8376   -1.0553 H   0  0  0  0  0  0
   -2.2047    0.6639   -1.5256 H   0  0  0  0  0  0
   -3.9138   -3.3772    5.2503 H   0  0  0  0  0  0
   -3.6247   -3.9078    7.5523 H   0  0  0  0  0  0
    1.0385   -1.5714    7.3369 H   0  0  0  0  0  0
   -1.6631   -3.3039    8.8403 H   0  0  0  0  0  0
   -0.3799   -4.4972    3.5816 H   0  0  0  0  0  0
   -0.5458   -6.9583    3.5857 H   0  0  0  0  0  0
   -2.5251   -8.0789    2.6172 H   0  0  0  0  0  0
   -7.8712   -3.8534    4.1172 H   0  0  0  0  0  0
   -7.2841   -4.2590    6.4935 H   0  0  0  0  0  0
   -5.9551   -6.2589    7.1187 H   0  0  0  0  0  0
  1  2  1  0  0  0
  1 36  1  0  0  0
  1 37  1  0  0  0
  1 38  1  0  0  0
  2  3  1  0  0  0
  2  4  1  0  0  0
  2  5  1  0  0  0
  3 39  1  0  0  0
  3 40  1  0  0  0
  3 41  1  0  0  0
  4 42  1  0  0  0
  4 43  1  0  0  0
  4 44  1  0  0  0
  5  9  1  0  0  0
  5  6  2  0  0  0
  6  7  1  0  0  0
  7  8  2  0  0  0
  7 17  1  0  0  0
  8  9  1  0  0  0
  8 10  1  0  0  0
 10 11  1  0  0  0
 10 15  2  0  0  0
 11 12  2  0  0  0
 11 45  1  0  0  0
 12 13  1  0  0  0
 12 46  1  0  0  0
 13 14  1  0  0  0
 13 48  1  0  0  0
 14 16  2  0  0  0
 14 15  1  0  0  0
 16 47  1  0  0  0
 17 22  2  0  0  0
 17 18  1  0  0  0
 18 19  2  0  0  0
 18 49  1  0  0  0
 19 20  1  0  0  0
 19 50  1  0  0  0
 20 21  2  0  0  0
 20 51  1  0  0  0
 21 22  1  0  0  0
 21 24  1  0  0  0
 22 23  1  0  0  0
 24 25  1  0  0  0
 25 26  2  0  0  0
 25 27  2  0  0  0
 25 28  1  0  0  0
 28 33  2  0  0  0
 28 29  1  0  0  0
 29 30  2  0  0  0
 29 35  1  0  0  0
 30 31  1  0  0  0
 30 52  1  0  0  0
 31 32  2  0  0  0
 31 53  1  0  0  0
 32 33  1  0  0  0
 32 54  1  0  0  0
 33 34  1  0  0  0
M  CHG  1  24  -1
M  END
> <s_m_source_file>
/Users/andrea/Development/mcce-charges/epik_inhibitors/output/Dabrafenib/Dabrafenib-input.mol2

> <i_m_source_file_index>
1

> <r_lp_tautomer_probability>
4.69999911640017e-08

> <r_epik_Ionization_Penalty>
  9.0414

> <r_epik_Ionization_Penalty_Charging>
  9.0414

> <r_epik_Ionization_Penalty_Neutral>
  0.0000

> <r_epik_State_Penalty>
 11.1308

> <i_epik_Tot_Q>
-1

$$$$
~{N}-[3-[5-(2-aminopyrimidin-4-yl)-2-~{tert}-butyl-thiazol-4-yl]-2-fluoro-phenyl]-2,6-difluoro-benzenesulfonamide
                    3D
 Structure written by MMmdl.
 54 57  0  0  1  0            999 V2000
   -0.7691    1.1225    0.7234 C   0  0  0  0  0  0
   -2.0893    0.3283    0.6205 C   0  0  0  0  0  0
   -3.2776    1.2864    0.8531 C   0  0  0  0  0  0
   -2.1983   -0.1895   -0.8316 C   0  0  0  0  0  0
   -2.1070   -0.7851    1.6809 C   0  0  0  0  0  0
   -2.2049   -2.0680    1.4111 N   0  0  0  0  0  0
   -2.1914   -2.7760    2.5971 C   0  0  0  0  0  0
   -2.0845   -2.0226    3.7474 C   0  0  0  0  0  0
   -1.9946   -0.3593    3.3394 S   0  0  0  0  0  0
   -2.0401   -2.4081    5.1381 C   0  0  0  0  0  0
   -3.0793   -3.0998    5.7264 C   0  0  0  0  0  0
   -2.9117   -3.4073    7.0612 C   0  0  0  0  0  0
   -1.8185   -3.0705    7.7766 N   0  0  0  0  0  0
   -0.8750   -2.3985    7.0899 C   0  0  0  0  0  0
   -0.9192   -2.0399    5.7926 N   0  0  0  0  0  0
    0.2847   -2.0306    7.8069 N   0  0  0  0  0  0
   -2.2876   -4.2096    2.5993 C   0  0  0  0  0  0
   -1.2582   -4.9722    3.1512 C   0  0  0  0  0  0
   -1.3471   -6.3643    3.1559 C   0  0  0  0  0  0
   -2.4652   -6.9937    2.6086 C   0  0  0  0  0  0
   -3.4944   -6.2310    2.0567 C   0  0  0  0  0  0
   -3.4056   -4.8389    2.0520 C   0  0  0  0  0  0
   -4.3990   -4.1099    1.5193 F   0  0  0  0  0  0
   -4.6368   -6.8790    1.4966 N   0  5  0  0  0  0
   -5.5989   -7.8872    2.5095 S   0  0  0  0  0  0
   -6.7865   -8.2928    1.7811 O   0  0  0  0  0  0
   -4.7671   -8.8897    3.1469 O   0  0  0  0  0  0
   -6.1272   -6.7499    3.7586 C   0  0  0  0  0  0
   -6.8738   -5.6253    3.4071 C   0  0  0  0  0  0
   -7.2901   -4.7289    4.3915 C   0  0  0  0  0  0
   -6.9595   -4.9570    5.7273 C   0  0  0  0  0  0
   -6.2128   -6.0816    6.0787 C   0  0  0  0  0  0
   -5.7966   -6.9780    5.0944 C   0  0  0  0  0  0
   -5.0799   -8.0553    5.4444 F   0  0  0  0  0  0
   -7.1972   -5.3951    2.1268 F   0  0  0  0  0  0
    0.0808    0.4439    0.5583 H   0  0  0  0  0  0
   -0.6894    1.5734    1.7235 H   0  0  0  0  0  0
   -0.7582    1.9159   -0.0385 H   0  0  0  0  0  0
   -4.2208    0.7251    0.7808 H   0  0  0  0  0  0
   -3.2636    2.0796    0.0911 H   0  0  0  0  0  0
   -3.1948    1.7371    1.8531 H   0  0  0  0  0  0
   -3.1296   -0.7632   -0.9473 H   0  0  0  0  0  0
   -1.3381   -0.8376   -1.0553 H   0  0  0  0  0  0
   -2.2047    0.6639   -1.5256 H   0  0  0  0  0  0
   -3.9138   -3.3772    5.2503 H   0  0  0  0  0  0
   -3.6247   -3.9078    7.5523 H   0  0  0  0  0  0
    0.3521   -2.2293    8.7846 H   0  0  0  0  0  0
   -1.6631   -3.3039    8.8403 H   0  0  0  0  0  0
   -0.3799   -4.4972    3.5816 H   0  0  0  0  0  0
   -0.5458   -6.9583    3.5857 H   0  0  0  0  0  0
   -2.5251   -8.0789    2.6172 H   0  0  0  0  0  0
   -7.8712   -3.8534    4.1172 H   0  0  0  0  0  0
   -7.2841   -4.2590    6.4935 H   0  0  0  0  0  0
   -5.9551   -6.2589    7.1187 H   0  0  0  0  0  0
  1  2  1  0  0  0
  1 36  1  0  0  0
  1 37  1  0  0  0
  1 38  1  0  0  0
  2  3  1  0  0  0
  2  4  1  0  0  0
  2  5  1  0  0  0
  3 39  1  0  0  0
  3 40  1  0  0  0
  3 41  1  0  0  0
  4 42  1  0  0  0
  4 43  1  0  0  0
  4 44  1  0  0  0
  5  9  1  0  0  0
  5  6  2  0  0  0
  6  7  1  0  0  0
  7  8  2  0  0  0
  7 17  1  0  0  0
  8  9  1  0  0  0
  8 10  1  0  0  0
 10 11  1  0  0  0
 10 15  2  0  0  0
 11 12  2  0  0  0
 11 45  1  0  0  0
 12 13  1  0  0  0
 12 46  1  0  0  0
 13 14  1  0  0  0
 13 48  1  0  0  0
 14 16  2  0  0  0
 14 15  1  0  0  0
 16 47  1  0  0  0
 17 22  2  0  0  0
 17 18  1  0  0  0
 18 19  2  0  0  0
 18 49  1  0  0  0
 19 20  1  0  0  0
 19 50  1  0  0  0
 20 21  2  0  0  0
 20 51  1  0  0  0
 21 22  1  0  0  0
 21 24  1  0  0  0
 22 23  1  0  0  0
 24 25  1  0  0  0
 25 26  2  0  0  0
 25 27  2  0  0  0
 25 28  1  0  0  0
 28 33  2  0  0  0
 28 29  1  0  0  0
 29 30  2  0  0  0
 29 35  1  0  0  0
 30 31  1  0  0  0
 30 52  1  0  0  0
 31 32  2  0  0  0
 31 53  1  0  0  0
 32 33  1  0  0  0
 32 54  1  0  0  0
 33 34  1  0  0  0
M  CHG  1  24  -1
M  END
> <s_m_source_file>
/Users/andrea/Development/mcce-charges/epik_inhibitors/output/Dabrafenib/Dabrafenib-input.mol2

> <i_m_source_file_index>
1

> <r_lp_tautomer_probability>
4.69999911640017e-08

> <r_epik_Ionization_Penalty>
  9.0414

> <r_epik_Ionization_Penalty_Charging>
  9.0414

> <r_epik_Ionization_Penalty_Neutral>
  0.0000

> <r_epik_State_Penalty>
 11.1308

> <i_epik_Tot_Q>
-1

$$$$
~{N}-[3-[5-(2-aminopyrimidin-4-yl)-2-~{tert}-butyl-thiazol-4-yl]-2-fluoro-phenyl]-2,6-difluoro-benzenesulfonamide
                    3D
 Structure written by MMmdl.
 54 57  0  0  1  0            999 V2000
   -0.7718    1.1265    0.7258 C   0  0  0  0  0  0
   -2.0917    0.3318    0.6227 C   0  0  0  0  0  0
   -3.2803    1.2892    0.8563 C   0  0  0  0  0  0
   -2.2008   -0.1849   -0.8298 C   0  0  0  0  0  0
   -2.1086   -0.7824    1.6822 C   0  0  0  0  0  0
   -2.2060   -2.0651    1.4115 N   0  0  0  0  0  0
   -2.1919   -2.7740    2.5968 C   0  0  0  0  0  0
   -2.0850   -2.0215    3.7478 C   0  0  0  0  0  0
   -1.9960   -0.3579    3.3410 S   0  0  0  0  0  0
   -2.0401   -2.4081    5.1381 C   0  0  0  0  0  0
   -3.0793   -3.0998    5.7264 C   0  0  0  0  0  0
   -2.9117   -3.4073    7.0612 C   0  0  0  0  0  0
   -1.8175   -3.0726    7.7760 N   0  0  0  0  0  0
   -0.8740   -2.4005    7.0893 C   0  0  0  0  0  0
   -0.9187   -2.0408    5.7923 N   0  0  0  0  0  0
    0.2862   -2.0336    7.8060 N   0  0  0  0  0  0
   -2.2874   -4.2078    2.5979 C   0  0  0  0  0  0
   -1.2576   -4.9703    3.1490 C   0  0  0  0  0  0
   -1.3458   -6.3625    3.1526 C   0  0  0  0  0  0
   -2.4637   -6.9919    2.6051 C   0  0  0  0  0  0
   -3.4934   -6.2292    2.0541 C   0  0  0  0  0  0
   -3.4053   -4.8371    2.0504 C   0  0  0  0  0  0
   -4.3991   -4.1081    1.5186 F   0  0  0  0  0  0
   -4.6357   -6.8774    1.4938 N   0  5  0  0  0  0
   -5.5970   -7.8867    2.5061 S   0  0  0  0  0  0
   -6.7846   -8.2923    1.7777 O   0  0  0  0  0  0
   -4.7647   -8.8894    3.1425 O   0  0  0  0  0  0
   -6.1255   -6.7507    3.7563 C   0  0  0  0  0  0
   -6.8728   -5.6261    3.4058 C   0  0  0  0  0  0
   -7.2892   -4.7307    4.3910 C   0  0  0  0  0  0
   -6.9582   -4.9597    5.7266 C   0  0  0  0  0  0
   -6.2109   -6.0843    6.0769 C   0  0  0  0  0  0
   -5.7946   -6.9797    5.0918 C   0  0  0  0  0  0
   -5.0773   -8.0569    5.4408 F   0  0  0  0  0  0
   -7.1966   -5.3951    2.1258 F   0  0  0  0  0  0
    0.0783    0.4484    0.5600 H   0  0  0  0  0  0
   -0.6921    1.5766    1.7263 H   0  0  0  0  0  0
   -0.7615    1.9205   -0.0354 H   0  0  0  0  0  0
   -4.2233    0.7275    0.7838 H   0  0  0  0  0  0
   -3.2669    2.0830    0.0949 H   0  0  0  0  0  0
   -3.1976    1.7392    1.8567 H   0  0  0  0  0  0
   -3.1319   -0.7590   -0.9457 H   0  0  0  0  0  0
   -1.3404   -0.8325   -1.0542 H   0  0  0  0  0  0
   -2.2078    0.6690   -1.5232 H   0  0  0  0  0  0
   -3.8854   -3.3446    5.1876 H   0  0  0  0  0  0
   -3.6594   -3.9086    7.4967 H   0  0  0  0  0  0
    1.0399   -1.5743    7.3360 H   0  0  0  0  0  0
   -0.1280   -1.4899    5.2620 H   0  0  0  0  0  0
   -0.3793   -4.4952    3.5795 H   0  0  0  0  0  0
   -0.5441   -6.9564    3.5818 H   0  0  0  0  0  0
   -2.5232   -8.0771    2.6129 H   0  0  0  0  0  0
   -7.8708   -3.8553    4.1176 H   0  0  0  0  0  0
   -7.2829   -4.2624    6.4934 H   0  0  0  0  0  0
   -5.9529   -6.2622    7.1167 H   0  0  0  0  0  0
  1  2  1  0  0  0
  1 36  1  0  0  0
  1 37  1  0  0  0
  1 38  1  0  0  0
  2  3  1  0  0  0
  2  4  1  0  0  0
  2  5  1  0  0  0
  3 39  1  0  0  0
  3 40  1  0  0  0
  3 41  1  0  0  0
  4 42  1  0  0  0
  4 43  1  0  0  0
  4 44  1  0  0  0
  5  9  1  0  0  0
  5  6  2  0  0  0
  6  7  1  0  0  0
  7  8  2  0  0  0
  7 17  1  0  0  0
  8  9  1  0  0  0
  8 10  1  0  0  0
 10 11  2  0  0  0
 10 15  1  0  0  0
 11 12  1  0  0  0
 11 45  1  0  0  0
 12 13  2  0  0  0
 12 46  1  0  0  0
 13 14  1  0  0  0
 14 16  2  0  0  0
 14 15  1  0  0  0
 15 48  1  0  0  0
 16 47  1  0  0  0
 17 22  2  0  0  0
 17 18  1  0  0  0
 18 19  2  0  0  0
 18 49  1  0  0  0
 19 20  1  0  0  0
 19 50  1  0  0  0
 20 21  2  0  0  0
 20 51  1  0  0  0
 21 22  1  0  0  0
 21 24  1  0  0  0
 22 23  1  0  0  0
 24 25  1  0  0  0
 25 26  2  0  0  0
 25 27  2  0  0  0
 25 28  1  0  0  0
 28 33  2  0  0  0
 28 29  1  0  0  0
 29 30  2  0  0  0
 29 35  1  0  0  0
 30 31  1  0  0  0
 30 52  1  0  0  0
 31 32  2  0  0  0
 31 53  1  0  0  0
 32 33  1  0  0  0
 32 54  1  0  0  0
 33 34  1  0  0  0
M  CHG  1  24  -1
M  END
> <s_m_source_file>
/Users/andrea/Development/mcce-charges/epik_inhibitors/output/Dabrafenib/Dabrafenib-input.mol2

> <i_m_source_file_index>
1

> <r_lp_tautomer_probability>
4.69999911640017e-08

> <r_epik_Ionization_Penalty>
 10.3358

> <r_epik_Ionization_Penalty_Charging>
 10.3358

> <r_epik_Ionization_Penalty_Neutral>
  0.0000

> <r_epik_State_Penalty>
 11.2723

> <i_epik_Tot_Q>
-1

$$$$
~{N}-[3-[5-(2-aminopyrimidin-4-yl)-2-~{tert}-butyl-thiazol-4-yl]-2-fluoro-phenyl]-2,6-difluoro-benzenesulfonamide
                    3D
 Structure written by MMmdl.
 54 57  0  0  1  0            999 V2000
   -0.7718    1.1265    0.7258 C   0  0  0  0  0  0
   -2.0917    0.3318    0.6227 C   0  0  0  0  0  0
   -3.2803    1.2892    0.8563 C   0  0  0  0  0  0
   -2.2008   -0.1849   -0.8298 C   0  0  0  0  0  0
   -2.1086   -0.7824    1.6822 C   0  0  0  0  0  0
   -2.2060   -2.0651    1.4115 N   0  0  0  0  0  0
   -2.1919   -2.7740    2.5968 C   0  0  0  0  0  0
   -2.0850   -2.0215    3.7478 C   0  0  0  0  0  0
   -1.9960   -0.3579    3.3410 S   0  0  0  0  0  0
   -2.0401   -2.4081    5.1381 C   0  0  0  0  0  0
   -3.0793   -3.0998    5.7264 C   0  0  0  0  0  0
   -2.9117   -3.4073    7.0612 C   0  0  0  0  0  0
   -1.8175   -3.0726    7.7760 N   0  0  0  0  0  0
   -0.8740   -2.4005    7.0893 C   0  0  0  0  0  0
   -0.9187   -2.0408    5.7923 N   0  0  0  0  0  0
    0.2862   -2.0336    7.8060 N   0  0  0  0  0  0
   -2.2874   -4.2078    2.5979 C   0  0  0  0  0  0
   -1.2576   -4.9703    3.1490 C   0  0  0  0  0  0
   -1.3458   -6.3625    3.1526 C   0  0  0  0  0  0
   -2.4637   -6.9919    2.6051 C   0  0  0  0  0  0
   -3.4934   -6.2292    2.0541 C   0  0  0  0  0  0
   -3.4053   -4.8371    2.0504 C   0  0  0  0  0  0
   -4.3991   -4.1081    1.5186 F   0  0  0  0  0  0
   -4.6357   -6.8774    1.4938 N   0  5  0  0  0  0
   -5.5970   -7.8867    2.5061 S   0  0  0  0  0  0
   -6.7846   -8.2923    1.7777 O   0  0  0  0  0  0
   -4.7647   -8.8894    3.1425 O   0  0  0  0  0  0
   -6.1255   -6.7507    3.7563 C   0  0  0  0  0  0
   -6.8728   -5.6261    3.4058 C   0  0  0  0  0  0
   -7.2892   -4.7307    4.3910 C   0  0  0  0  0  0
   -6.9582   -4.9597    5.7266 C   0  0  0  0  0  0
   -6.2109   -6.0843    6.0769 C   0  0  0  0  0  0
   -5.7946   -6.9797    5.0918 C   0  0  0  0  0  0
   -5.0773   -8.0569    5.4408 F   0  0  0  0  0  0
   -7.1966   -5.3951    2.1258 F   0  0  0  0  0  0
    0.0783    0.4484    0.5600 H   0  0  0  0  0  0
   -0.6921    1.5766    1.7263 H   0  0  0  0  0  0
   -0.7615    1.9205   -0.0354 H   0  0  0  0  0  0
   -4.2233    0.7275    0.7838 H   0  0  0  0  0  0
   -3.2669    2.0830    0.0949 H   0  0  0  0  0  0
   -3.1976    1.7392    1.8567 H   0  0  0  0  0  0
   -3.1319   -0.7590   -0.9457 H   0  0  0  0  0  0
   -1.3404   -0.8325   -1.0542 H   0  0  0  0  0  0
   -2.2078    0.6690   -1.5232 H   0  0  0  0  0  0
   -3.8854   -3.3446    5.1876 H   0  0  0  0  0  0
   -3.6594   -3.9086    7.4967 H   0  0  0  0  0  0
    0.3540   -2.2331    8.7836 H   0  0  0  0  0  0
   -0.1280   -1.4899    5.2620 H   0  0  0  0  0  0
   -0.3793   -4.4952    3.5795 H   0  0  0  0  0  0
   -0.5441   -6.9564    3.5818 H   0  0  0  0  0  0
   -2.5232   -8.0771    2.6129 H   0  0  0  0  0  0
   -7.8708   -3.8553    4.1176 H   0  0  0  0  0  0
   -7.2829   -4.2624    6.4934 H   0  0  0  0  0  0
   -5.9529   -6.2622    7.1167 H   0  0  0  0  0  0
  1  2  1  0  0  0
  1 36  1  0  0  0
  1 37  1  0  0  0
  1 38  1  0  0  0
  2  3  1  0  0  0
  2  4  1  0  0  0
  2  5  1  0  0  0
  3 39  1  0  0  0
  3 40  1  0  0  0
  3 41  1  0  0  0
  4 42  1  0  0  0
  4 43  1  0  0  0
  4 44  1  0  0  0
  5  9  1  0  0  0
  5  6  2  0  0  0
  6  7  1  0  0  0
  7  8  2  0  0  0
  7 17  1  0  0  0
  8  9  1  0  0  0
  8 10  1  0  0  0
 10 11  2  0  0  0
 10 15  1  0  0  0
 11 12  1  0  0  0
 11 45  1  0  0  0
 12 13  2  0  0  0
 12 46  1  0  0  0
 13 14  1  0  0  0
 14 16  2  0  0  0
 14 15  1  0  0  0
 15 48  1  0  0  0
 16 47  1  0  0  0
 17 22  2  0  0  0
 17 18  1  0  0  0
 18 19  2  0  0  0
 18 49  1  0  0  0
 19 20  1  0  0  0
 19 50  1  0  0  0
 20 21  2  0  0  0
 20 51  1  0  0  0
 21 22  1  0  0  0
 21 24  1  0  0  0
 22 23  1  0  0  0
 24 25  1  0  0  0
 25 26  2  0  0  0
 25 27  2  0  0  0
 25 28  1  0  0  0
 28 33  2  0  0  0
 28 29  1  0  0  0
 29 30  2  0  0  0
 29 35  1  0  0  0
 30 31  1  0  0  0
 30 52  1  0  0  0
 31 32  2  0  0  0
 31 53  1  0  0  0
 32 33  1  0  0  0
 32 54  1  0  0  0
 33 34  1  0  0  0
M  CHG  1  24  -1
M  END
> <s_m_source_file>
/Users/andrea/Development/mcce-charges/epik_inhibitors/output/Dabrafenib/Dabrafenib-input.mol2

> <i_m_source_file_index>
1

> <r_lp_tautomer_probability>
4.69999911640017e-08

> <r_epik_Ionization_Penalty>
 10.3358

> <r_epik_Ionization_Penalty_Charging>
 10.3358

> <r_epik_Ionization_Penalty_Neutral>
  0.0000

> <r_epik_State_Penalty>
 11.2723

> <i_epik_Tot_Q>
-1

$$$$
~{N}-[3-[5-(2-aminopyrimidin-4-yl)-2-~{tert}-butyl-thiazol-4-yl]-2-fluoro-phenyl]-2,6-difluoro-benzenesulfonamide
                    3D
 Structure written by MMmdl.
 55 58  0  0  1  0            999 V2000
   -0.7691    1.1225    0.7234 C   0  0  0  0  0  0
   -2.0893    0.3283    0.6205 C   0  0  0  0  0  0
   -3.2776    1.2864    0.8531 C   0  0  0  0  0  0
   -2.1983   -0.1895   -0.8316 C   0  0  0  0  0  0
   -2.1070   -0.7851    1.6809 C   0  0  0  0  0  0
   -2.2049   -2.0680    1.4111 N   0  0  0  0  0  0
   -2.1914   -2.7760    2.5971 C   0  0  0  0  0  0
   -2.0845   -2.0226    3.7474 C   0  0  0  0  0  0
   -1.9946   -0.3593    3.3394 S   0  0  0  0  0  0
   -2.0401   -2.4081    5.1381 C   0  0  0  0  0  0
   -3.0793   -3.0998    5.7264 C   0  0  0  0  0  0
   -2.9117   -3.4073    7.0612 C   0  0  0  0  0  0
   -1.8185   -3.0705    7.7766 N   0  0  0  0  0  0
   -0.8750   -2.3985    7.0899 C   0  0  0  0  0  0
   -0.9192   -2.0399    5.7926 N   0  0  0  0  0  0
    0.2847   -2.0306    7.8069 N   0  0  0  0  0  0
   -2.2876   -4.2096    2.5993 C   0  0  0  0  0  0
   -1.2582   -4.9722    3.1512 C   0  0  0  0  0  0
   -1.3471   -6.3643    3.1559 C   0  0  0  0  0  0
   -2.4652   -6.9937    2.6086 C   0  0  0  0  0  0
   -3.4944   -6.2310    2.0567 C   0  0  0  0  0  0
   -3.4056   -4.8389    2.0520 C   0  0  0  0  0  0
   -4.3990   -4.1099    1.5193 F   0  0  0  0  0  0
   -4.6368   -6.8790    1.4966 N   0  0  0  0  0  0
   -5.5989   -7.8872    2.5095 S   0  0  0  0  0  0
   -6.7865   -8.2928    1.7811 O   0  0  0  0  0  0
   -4.7671   -8.8897    3.1469 O   0  0  0  0  0  0
   -6.1272   -6.7499    3.7586 C   0  0  0  0  0  0
   -6.8738   -5.6253    3.4071 C   0  0  0  0  0  0
   -7.2901   -4.7289    4.3915 C   0  0  0  0  0  0
   -6.9595   -4.9570    5.7273 C   0  0  0  0  0  0
   -6.2128   -6.0816    6.0787 C   0  0  0  0  0  0
   -5.7966   -6.9780    5.0944 C   0  0  0  0  0  0
   -5.0799   -8.0553    5.4444 F   0  0  0  0  0  0
   -7.1972   -5.3951    2.1268 F   0  0  0  0  0  0
    0.0808    0.4439    0.5583 H   0  0  0  0  0  0
   -0.6894    1.5734    1.7235 H   0  0  0  0  0  0
   -0.7582    1.9159   -0.0385 H   0  0  0  0  0  0
   -4.2208    0.7251    0.7808 H   0  0  0  0  0  0
   -3.2636    2.0796    0.0911 H   0  0  0  0  0  0
   -3.1948    1.7371    1.8531 H   0  0  0  0  0  0
   -3.1296   -0.7632   -0.9473 H   0  0  0  0  0  0
   -1.3381   -0.8376   -1.0553 H   0  0  0  0  0  0
   -2.2047    0.6639   -1.5256 H   0  0  0  0  0  0
   -3.9138   -3.3772    5.2503 H   0  0  0  0  0  0
   -3.6247   -3.9078    7.5523 H   0  0  0  0  0  0
    1.0385   -1.5714    7.3369 H   0  0  0  0  0  0
   -1.6631   -3.3039    8.8403 H   0  0  0  0  0  0
   -0.3799   -4.4972    3.5816 H   0  0  0  0  0  0
   -0.5458   -6.9583    3.5857 H   0  0  0  0  0  0
   -2.5251   -8.0789    2.6172 H   0  0  0  0  0  0
   -4.9069   -6.7441    0.4389 H   0  0  0  0  0  0
   -7.8712   -3.8534    4.1172 H   0  0  0  0  0  0
   -7.2841   -4.2590    6.4935 H   0  0  0  0  0  0
   -5.9551   -6.2589    7.1187 H   0  0  0  0  0  0
  1  2  1  0  0  0
  1 36  1  0  0  0
  1 37  1  0  0  0
  1 38  1  0  0  0
  2  3  1  0  0  0
  2  4  1  0  0  0
  2  5  1  0  0  0
  3 39  1  0  0  0
  3 40  1  0  0  0
  3 41  1  0  0  0
  4 42  1  0  0  0
  4 43  1  0  0  0
  4 44  1  0  0  0
  5  9  1  0  0  0
  5  6  2  0  0  0
  6  7  1  0  0  0
  7  8  2  0  0  0
  7 17  1  0  0  0
  8  9  1  0  0  0
  8 10  1  0  0  0
 10 11  1  0  0  0
 10 15  2  0  0  0
 11 12  2  0  0  0
 11 45  1  0  0  0
 12 13  1  0  0  0
 12 46  1  0  0  0
 13 14  1  0  0  0
 13 48  1  0  0  0
 14 16  2  0  0  0
 14 15  1  0  0  0
 16 47  1  0  0  0
 17 22  2  0  0  0
 17 18  1  0  0  0
 18 19  2  0  0  0
 18 49  1  0  0  0
 19 20  1  0  0  0
 19 50  1  0  0  0
 20 21  2  0  0  0
 20 51  1  0  0  0
 21 22  1  0  0  0
 21 24  1  0  0  0
 22 23  1  0  0  0
 24 25  1  0  0  0
 24 52  1  0  0  0
 25 26  2  0  0  0
 25 27  2  0  0  0
 25 28  1  0  0  0
 28 33  2  0  0  0
 28 29  1  0  0  0
 29 30  2  0  0  0
 29 35  1  0  0  0
 30 31  1  0  0  0
 30 53  1  0  0  0
 31 32  2  0  0  0
 31 54  1  0  0  0
 32 33  1  0  0  0
 32 55  1  0  0  0
 33 34  1  0  0  0
M  END
> <s_m_source_file>
/Users/andrea/Development/mcce-charges/epik_inhibitors/output/Dabrafenib/Dabrafenib-input.mol2

> <i_m_source_file_index>
1

> <r_lp_tautomer_probability>
4.69999911640017e-08

> <r_epik_Ionization_Penalty>
  9.5772

> <r_epik_Ionization_Penalty_Charging>
  8.8400

> <r_epik_Ionization_Penalty_Neutral>
  0.7372

> <r_epik_State_Penalty>
 11.6937

> <i_epik_Tot_Q>
0

$$$$
~{N}-[3-[5-(2-aminopyrimidin-4-yl)-2-~{tert}-butyl-thiazol-4-yl]-2-fluoro-phenyl]-2,6-difluoro-benzenesulfonamide
                    3D
 Structure written by MMmdl.
 55 58  0  0  1  0            999 V2000
   -0.7691    1.1225    0.7234 C   0  0  0  0  0  0
   -2.0893    0.3283    0.6205 C   0  0  0  0  0  0
   -3.2776    1.2864    0.8531 C   0  0  0  0  0  0
   -2.1983   -0.1895   -0.8316 C   0  0  0  0  0  0
   -2.1070   -0.7851    1.6809 C   0  0  0  0  0  0
   -2.2049   -2.0680    1.4111 N   0  0  0  0  0  0
   -2.1914   -2.7760    2.5971 C   0  0  0  0  0  0
   -2.0845   -2.0226    3.7474 C   0  0  0  0  0  0
   -1.9946   -0.3593    3.3394 S   0  0  0  0  0  0
   -2.0401   -2.4081    5.1381 C   0  0  0  0  0  0
   -3.0793   -3.0998    5.7264 C   0  0  0  0  0  0
   -2.9117   -3.4073    7.0612 C   0  0  0  0  0  0
   -1.8185   -3.0705    7.7766 N   0  0  0  0  0  0
   -0.8750   -2.3985    7.0899 C   0  0  0  0  0  0
   -0.9192   -2.0399    5.7926 N   0  0  0  0  0  0
    0.2847   -2.0306    7.8069 N   0  0  0  0  0  0
   -2.2876   -4.2096    2.5993 C   0  0  0  0  0  0
   -1.2582   -4.9722    3.1512 C   0  0  0  0  0  0
   -1.3471   -6.3643    3.1559 C   0  0  0  0  0  0
   -2.4652   -6.9937    2.6086 C   0  0  0  0  0  0
   -3.4944   -6.2310    2.0567 C   0  0  0  0  0  0
   -3.4056   -4.8389    2.0520 C   0  0  0  0  0  0
   -4.3990   -4.1099    1.5193 F   0  0  0  0  0  0
   -4.6368   -6.8790    1.4966 N   0  0  0  0  0  0
   -5.5989   -7.8872    2.5095 S   0  0  0  0  0  0
   -6.7865   -8.2928    1.7811 O   0  0  0  0  0  0
   -4.7671   -8.8897    3.1469 O   0  0  0  0  0  0
   -6.1272   -6.7499    3.7586 C   0  0  0  0  0  0
   -6.8738   -5.6253    3.4071 C   0  0  0  0  0  0
   -7.2901   -4.7289    4.3915 C   0  0  0  0  0  0
   -6.9595   -4.9570    5.7273 C   0  0  0  0  0  0
   -6.2128   -6.0816    6.0787 C   0  0  0  0  0  0
   -5.7966   -6.9780    5.0944 C   0  0  0  0  0  0
   -5.0799   -8.0553    5.4444 F   0  0  0  0  0  0
   -7.1972   -5.3951    2.1268 F   0  0  0  0  0  0
    0.0808    0.4439    0.5583 H   0  0  0  0  0  0
   -0.6894    1.5734    1.7235 H   0  0  0  0  0  0
   -0.7582    1.9159   -0.0385 H   0  0  0  0  0  0
   -4.2208    0.7251    0.7808 H   0  0  0  0  0  0
   -3.2636    2.0796    0.0911 H   0  0  0  0  0  0
   -3.1948    1.7371    1.8531 H   0  0  0  0  0  0
   -3.1296   -0.7632   -0.9473 H   0  0  0  0  0  0
   -1.3381   -0.8376   -1.0553 H   0  0  0  0  0  0
   -2.2047    0.6639   -1.5256 H   0  0  0  0  0  0
   -3.9138   -3.3772    5.2503 H   0  0  0  0  0  0
   -3.6247   -3.9078    7.5523 H   0  0  0  0  0  0
    0.3521   -2.2293    8.7846 H   0  0  0  0  0  0
   -1.6631   -3.3039    8.8403 H   0  0  0  0  0  0
   -0.3799   -4.4972    3.5816 H   0  0  0  0  0  0
   -0.5458   -6.9583    3.5857 H   0  0  0  0  0  0
   -2.5251   -8.0789    2.6172 H   0  0  0  0  0  0
   -4.9069   -6.7441    0.4389 H   0  0  0  0  0  0
   -7.8712   -3.8534    4.1172 H   0  0  0  0  0  0
   -7.2841   -4.2590    6.4935 H   0  0  0  0  0  0
   -5.9551   -6.2589    7.1187 H   0  0  0  0  0  0
  1  2  1  0  0  0
  1 36  1  0  0  0
  1 37  1  0  0  0
  1 38  1  0  0  0
  2  3  1  0  0  0
  2  4  1  0  0  0
  2  5  1  0  0  0
  3 39  1  0  0  0
  3 40  1  0  0  0
  3 41  1  0  0  0
  4 42  1  0  0  0
  4 43  1  0  0  0
  4 44  1  0  0  0
  5  9  1  0  0  0
  5  6  2  0  0  0
  6  7  1  0  0  0
  7  8  2  0  0  0
  7 17  1  0  0  0
  8  9  1  0  0  0
  8 10  1  0  0  0
 10 11  1  0  0  0
 10 15  2  0  0  0
 11 12  2  0  0  0
 11 45  1  0  0  0
 12 13  1  0  0  0
 12 46  1  0  0  0
 13 14  1  0  0  0
 13 48  1  0  0  0
 14 16  2  0  0  0
 14 15  1  0  0  0
 16 47  1  0  0  0
 17 22  2  0  0  0
 17 18  1  0  0  0
 18 19  2  0  0  0
 18 49  1  0  0  0
 19 20  1  0  0  0
 19 50  1  0  0  0
 20 21  2  0  0  0
 20 51  1  0  0  0
 21 22  1  0  0  0
 21 24  1  0  0  0
 22 23  1  0  0  0
 24 25  1  0  0  0
 24 52  1  0  0  0
 25 26  2  0  0  0
 25 27  2  0  0  0
 25 28  1  0  0  0
 28 33  2  0  0  0
 28 29  1  0  0  0
 29 30  2  0  0  0
 29 35  1  0  0  0
 30 31  1  0  0  0
 30 53  1  0  0  0
 31 32  2  0  0  0
 31 54  1  0  0  0
 32 33  1  0  0  0
 32 55  1  0  0  0
 33 34  1  0  0  0
M  END
> <s_m_source_file>
/Users/andrea/Development/mcce-charges/epik_inhibitors/output/Dabrafenib/Dabrafenib-input.mol2

> <i_m_source_file_index>
1

> <r_lp_tautomer_probability>
4.69999911640017e-08

> <r_epik_Ionization_Penalty>
  9.5772

> <r_epik_Ionization_Penalty_Charging>
  8.8400

> <r_epik_Ionization_Penalty_Neutral>
  0.7372

> <r_epik_State_Penalty>
 11.7109

> <i_epik_Tot_Q>
0

$$$$
~{N}-[3-[5-(2-aminopyrimidin-4-yl)-2-~{tert}-butyl-thiazol-4-yl]-2-fluoro-phenyl]-2,6-difluoro-benzenesulfonamide
                    3D
 Structure written by MMmdl.
 55 58  0  0  1  0            999 V2000
   -0.7718    1.1265    0.7258 C   0  0  0  0  0  0
   -2.0917    0.3318    0.6227 C   0  0  0  0  0  0
   -3.2803    1.2892    0.8563 C   0  0  0  0  0  0
   -2.2008   -0.1849   -0.8298 C   0  0  0  0  0  0
   -2.1086   -0.7824    1.6822 C   0  0  0  0  0  0
   -2.2060   -2.0651    1.4115 N   0  0  0  0  0  0
   -2.1919   -2.7740    2.5968 C   0  0  0  0  0  0
   -2.0850   -2.0215    3.7478 C   0  0  0  0  0  0
   -1.9960   -0.3579    3.3410 S   0  0  0  0  0  0
   -2.0401   -2.4081    5.1381 C   0  0  0  0  0  0
   -3.0793   -3.0998    5.7264 C   0  0  0  0  0  0
   -2.9117   -3.4073    7.0612 C   0  0  0  0  0  0
   -1.8175   -3.0726    7.7760 N   0  0  0  0  0  0
   -0.8740   -2.4005    7.0893 C   0  0  0  0  0  0
   -0.9187   -2.0408    5.7923 N   0  0  0  0  0  0
    0.2862   -2.0336    7.8060 N   0  0  0  0  0  0
   -2.2874   -4.2078    2.5979 C   0  0  0  0  0  0
   -1.2576   -4.9703    3.1490 C   0  0  0  0  0  0
   -1.3458   -6.3625    3.1526 C   0  0  0  0  0  0
   -2.4637   -6.9919    2.6051 C   0  0  0  0  0  0
   -3.4934   -6.2292    2.0541 C   0  0  0  0  0  0
   -3.4053   -4.8371    2.0504 C   0  0  0  0  0  0
   -4.3991   -4.1081    1.5186 F   0  0  0  0  0  0
   -4.6357   -6.8774    1.4938 N   0  0  0  0  0  0
   -5.5970   -7.8867    2.5061 S   0  0  0  0  0  0
   -6.7846   -8.2923    1.7777 O   0  0  0  0  0  0
   -4.7647   -8.8894    3.1425 O   0  0  0  0  0  0
   -6.1255   -6.7507    3.7563 C   0  0  0  0  0  0
   -6.8728   -5.6261    3.4058 C   0  0  0  0  0  0
   -7.2892   -4.7307    4.3910 C   0  0  0  0  0  0
   -6.9582   -4.9597    5.7266 C   0  0  0  0  0  0
   -6.2109   -6.0843    6.0769 C   0  0  0  0  0  0
   -5.7946   -6.9797    5.0918 C   0  0  0  0  0  0
   -5.0773   -8.0569    5.4408 F   0  0  0  0  0  0
   -7.1966   -5.3951    2.1258 F   0  0  0  0  0  0
    0.0783    0.4484    0.5600 H   0  0  0  0  0  0
   -0.6921    1.5766    1.7263 H   0  0  0  0  0  0
   -0.7615    1.9205   -0.0354 H   0  0  0  0  0  0
   -4.2233    0.7275    0.7838 H   0  0  0  0  0  0
   -3.2669    2.0830    0.0949 H   0  0  0  0  0  0
   -3.1976    1.7392    1.8567 H   0  0  0  0  0  0
   -3.1319   -0.7590   -0.9457 H   0  0  0  0  0  0
   -1.3404   -0.8325   -1.0542 H   0  0  0  0  0  0
   -2.2078    0.6690   -1.5232 H   0  0  0  0  0  0
   -3.8854   -3.3446    5.1876 H   0  0  0  0  0  0
   -3.6594   -3.9086    7.4967 H   0  0  0  0  0  0
    1.0399   -1.5743    7.3360 H   0  0  0  0  0  0
   -0.1280   -1.4899    5.2620 H   0  0  0  0  0  0
   -0.3793   -4.4952    3.5795 H   0  0  0  0  0  0
   -0.5441   -6.9564    3.5818 H   0  0  0  0  0  0
   -2.5232   -8.0771    2.6129 H   0  0  0  0  0  0
   -4.9061   -6.7418    0.4362 H   0  0  0  0  0  0
   -7.8708   -3.8553    4.1176 H   0  0  0  0  0  0
   -7.2829   -4.2624    6.4934 H   0  0  0  0  0  0
   -5.9529   -6.2622    7.1167 H   0  0  0  0  0  0
  1  2  1  0  0  0
  1 36  1  0  0  0
  1 37  1  0  0  0
  1 38  1  0  0  0
  2  3  1  0  0  0
  2  4  1  0  0  0
  2  5  1  0  0  0
  3 39  1  0  0  0
  3 40  1  0  0  0
  3 41  1  0  0  0
  4 42  1  0  0  0
  4 43  1  0  0  0
  4 44  1  0  0  0
  5  9  1  0  0  0
  5  6  2  0  0  0
  6  7  1  0  0  0
  7  8  2  0  0  0
  7 17  1  0  0  0
  8  9  1  0  0  0
  8 10  1  0  0  0
 10 11  2  0  0  0
 10 15  1  0  0  0
 11 12  1  0  0  0
 11 45  1  0  0  0
 12 13  2  0  0  0
 12 46  1  0  0  0
 13 14  1  0  0  0
 14 16  2  0  0  0
 14 15  1  0  0  0
 15 48  1  0  0  0
 16 47  1  0  0  0
 17 22  2  0  0  0
 17 18  1  0  0  0
 18 19  2  0  0  0
 18 49  1  0  0  0
 19 20  1  0  0  0
 19 50  1  0  0  0
 20 21  2  0  0  0
 20 51  1  0  0  0
 21 22  1  0  0  0
 21 24  1  0  0  0
 22 23  1  0  0  0
 24 25  1  0  0  0
 24 52  1  0  0  0
 25 26  2  0  0  0
 25 27  2  0  0  0
 25 28  1  0  0  0
 28 33  2  0  0  0
 28 29  1  0  0  0
 29 30  2  0  0  0
 29 35  1  0  0  0
 30 31  1  0  0  0
 30 53  1  0  0  0
 31 32  2  0  0  0
 31 54  1  0  0  0
 32 33  1  0  0  0
 32 55  1  0  0  0
 33 34  1  0  0  0
M  END
> <s_m_source_file>
/Users/andrea/Development/mcce-charges/epik_inhibitors/output/Dabrafenib/Dabrafenib-input.mol2

> <i_m_source_file_index>
1

> <r_lp_tautomer_probability>
4.69999911640017e-08

> <r_epik_Ionization_Penalty>
 10.8716

> <r_epik_Ionization_Penalty_Charging>
 10.1344

> <r_epik_Ionization_Penalty_Neutral>
  0.7372

> <r_epik_State_Penalty>
 11.8399

> <i_epik_Tot_Q>
0

$$$$
~{N}-[3-[5-(2-aminopyrimidin-4-yl)-2-~{tert}-butyl-thiazol-4-yl]-2-fluoro-phenyl]-2,6-difluoro-benzenesulfonamide
                    3D
 Structure written by MMmdl.
 55 58  0  0  1  0            999 V2000
   -0.7718    1.1265    0.7258 C   0  0  0  0  0  0
   -2.0917    0.3318    0.6227 C   0  0  0  0  0  0
   -3.2803    1.2892    0.8563 C   0  0  0  0  0  0
   -2.2008   -0.1849   -0.8298 C   0  0  0  0  0  0
   -2.1086   -0.7824    1.6822 C   0  0  0  0  0  0
   -2.2060   -2.0651    1.4115 N   0  0  0  0  0  0
   -2.1919   -2.7740    2.5968 C   0  0  0  0  0  0
   -2.0850   -2.0215    3.7478 C   0  0  0  0  0  0
   -1.9960   -0.3579    3.3410 S   0  0  0  0  0  0
   -2.0401   -2.4081    5.1381 C   0  0  0  0  0  0
   -3.0793   -3.0998    5.7264 C   0  0  0  0  0  0
   -2.9117   -3.4073    7.0612 C   0  0  0  0  0  0
   -1.8175   -3.0726    7.7760 N   0  0  0  0  0  0
   -0.8740   -2.4005    7.0893 C   0  0  0  0  0  0
   -0.9187   -2.0408    5.7923 N   0  0  0  0  0  0
    0.2862   -2.0336    7.8060 N   0  0  0  0  0  0
   -2.2874   -4.2078    2.5979 C   0  0  0  0  0  0
   -1.2576   -4.9703    3.1490 C   0  0  0  0  0  0
   -1.3458   -6.3625    3.1526 C   0  0  0  0  0  0
   -2.4637   -6.9919    2.6051 C   0  0  0  0  0  0
   -3.4934   -6.2292    2.0541 C   0  0  0  0  0  0
   -3.4053   -4.8371    2.0504 C   0  0  0  0  0  0
   -4.3991   -4.1081    1.5186 F   0  0  0  0  0  0
   -4.6357   -6.8774    1.4938 N   0  0  0  0  0  0
   -5.5970   -7.8867    2.5061 S   0  0  0  0  0  0
   -6.7846   -8.2923    1.7777 O   0  0  0  0  0  0
   -4.7647   -8.8894    3.1425 O   0  0  0  0  0  0
   -6.1255   -6.7507    3.7563 C   0  0  0  0  0  0
   -6.8728   -5.6261    3.4058 C   0  0  0  0  0  0
   -7.2892   -4.7307    4.3910 C   0  0  0  0  0  0
   -6.9582   -4.9597    5.7266 C   0  0  0  0  0  0
   -6.2109   -6.0843    6.0769 C   0  0  0  0  0  0
   -5.7946   -6.9797    5.0918 C   0  0  0  0  0  0
   -5.0773   -8.0569    5.4408 F   0  0  0  0  0  0
   -7.1966   -5.3951    2.1258 F   0  0  0  0  0  0
    0.0783    0.4484    0.5600 H   0  0  0  0  0  0
   -0.6921    1.5766    1.7263 H   0  0  0  0  0  0
   -0.7615    1.9205   -0.0354 H   0  0  0  0  0  0
   -4.2233    0.7275    0.7838 H   0  0  0  0  0  0
   -3.2669    2.0830    0.0949 H   0  0  0  0  0  0
   -3.1976    1.7392    1.8567 H   0  0  0  0  0  0
   -3.1319   -0.7590   -0.9457 H   0  0  0  0  0  0
   -1.3404   -0.8325   -1.0542 H   0  0  0  0  0  0
   -2.2078    0.6690   -1.5232 H   0  0  0  0  0  0
   -3.8854   -3.3446    5.1876 H   0  0  0  0  0  0
   -3.6594   -3.9086    7.4967 H   0  0  0  0  0  0
    0.3540   -2.2331    8.7836 H   0  0  0  0  0  0
   -0.1280   -1.4899    5.2620 H   0  0  0  0  0  0
   -0.3793   -4.4952    3.5795 H   0  0  0  0  0  0
   -0.5441   -6.9564    3.5818 H   0  0  0  0  0  0
   -2.5232   -8.0771    2.6129 H   0  0  0  0  0  0
   -4.9061   -6.7418    0.4362 H   0  0  0  0  0  0
   -7.8708   -3.8553    4.1176 H   0  0  0  0  0  0
   -7.2829   -4.2624    6.4934 H   0  0  0  0  0  0
   -5.9529   -6.2622    7.1167 H   0  0  0  0  0  0
  1  2  1  0  0  0
  1 36  1  0  0  0
  1 37  1  0  0  0
  1 38  1  0  0  0
  2  3  1  0  0  0
  2  4  1  0  0  0
  2  5  1  0  0  0
  3 39  1  0  0  0
  3 40  1  0  0  0
  3 41  1  0  0  0
  4 42  1  0  0  0
  4 43  1  0  0  0
  4 44  1  0  0  0
  5  9  1  0  0  0
  5  6  2  0  0  0
  6  7  1  0  0  0
  7  8  2  0  0  0
  7 17  1  0  0  0
  8  9  1  0  0  0
  8 10  1  0  0  0
 10 11  2  0  0  0
 10 15  1  0  0  0
 11 12  1  0  0  0
 11 45  1  0  0  0
 12 13  2  0  0  0
 12 46  1  0  0  0
 13 14  1  0  0  0
 14 16  2  0  0  0
 14 15  1  0  0  0
 15 48  1  0  0  0
 16 47  1  0  0  0
 17 22  2  0  0  0
 17 18  1  0  0  0
 18 19  2  0  0  0
 18 49  1  0  0  0
 19 20  1  0  0  0
 19 50  1  0  0  0
 20 21  2  0  0  0
 20 51  1  0  0  0
 21 22  1  0  0  0
 21 24  1  0  0  0
 22 23  1  0  0  0
 24 25  1  0  0  0
 24 52  1  0  0  0
 25 26  2  0  0  0
 25 27  2  0  0  0
 25 28  1  0  0  0
 28 33  2  0  0  0
 28 29  1  0  0  0
 29 30  2  0  0  0
 29 35  1  0  0  0
 30 31  1  0  0  0
 30 53  1  0  0  0
 31 32  2  0  0  0
 31 54  1  0  0  0
 32 33  1  0  0  0
 32 55  1  0  0  0
 33 34  1  0  0  0
M  END
> <s_m_source_file>
/Users/andrea/Development/mcce-charges/epik_inhibitors/output/Dabrafenib/Dabrafenib-input.mol2

> <i_m_source_file_index>
1

> <r_lp_tautomer_probability>
4.69999911640017e-08

> <r_epik_Ionization_Penalty>
 10.8716

> <r_epik_Ionization_Penalty_Charging>
 10.1344

> <r_epik_Ionization_Penalty_Neutral>
  0.7372

> <r_epik_State_Penalty>
 11.8470

> <i_epik_Tot_Q>
0

$$$$
~{N}-[3-[5-(2-aminopyrimidin-4-yl)-2-~{tert}-butyl-thiazol-4-yl]-2-fluoro-phenyl]-2,6-difluoro-benzenesulfonamide
                    3D
 Structure written by MMmdl.
 55 58  0  0  1  0            999 V2000
   -0.7704    1.1243    0.7246 C   0  0  0  0  0  0
   -2.0904    0.3299    0.6216 C   0  0  0  0  0  0
   -3.2789    1.2876    0.8548 C   0  0  0  0  0  0
   -2.1995   -0.1873   -0.8307 C   0  0  0  0  0  0
   -2.1077   -0.7840    1.6815 C   0  0  0  0  0  0
   -2.2053   -2.0668    1.4112 N   0  0  0  0  0  0
   -2.1915   -2.7753    2.5968 C   0  0  0  0  0  0
   -2.0846   -2.0224    3.7475 C   0  0  0  0  0  0
   -1.9952   -0.3589    3.3402 S   0  0  0  0  0  0
   -2.0399   -2.4085    5.1380 C   0  0  0  0  0  0
   -3.0793   -3.0998    5.7264 C   0  0  0  0  0  0
   -2.9119   -3.4069    7.0613 C   0  0  0  0  0  0
   -1.8185   -3.0705    7.7766 N   0  3  0  0  0  0
   -0.8750   -2.3985    7.0899 C   0  0  0  0  0  0
   -0.9190   -2.0403    5.7925 N   0  0  0  0  0  0
    0.2847   -2.0306    7.8069 N   0  0  0  0  0  0
   -2.2873   -4.2090    2.5984 C   0  0  0  0  0  0
   -1.2577   -4.9716    3.1498 C   0  0  0  0  0  0
   -1.3462   -6.3637    3.1539 C   0  0  0  0  0  0
   -2.4642   -6.9931    2.6065 C   0  0  0  0  0  0
   -3.4937   -6.2304    2.0551 C   0  0  0  0  0  0
   -3.4053   -4.8383    2.0510 C   0  0  0  0  0  0
   -4.3989   -4.1093    1.5188 F   0  0  0  0  0  0
   -4.6360   -6.8785    1.4949 N   0  5  0  0  0  0
   -5.5977   -7.8873    2.5075 S   0  0  0  0  0  0
   -6.7853   -8.2929    1.7791 O   0  0  0  0  0  0
   -4.7656   -8.8899    3.1443 O   0  0  0  0  0  0
   -6.1261   -6.7507    3.7572 C   0  0  0  0  0  0
   -6.8731   -5.6261    3.4063 C   0  0  0  0  0  0
   -7.2894   -4.7303    4.3911 C   0  0  0  0  0  0
   -6.9586   -4.9589    5.7268 C   0  0  0  0  0  0
   -6.2116   -6.0835    6.0776 C   0  0  0  0  0  0
   -5.7953   -6.9793    5.0928 C   0  0  0  0  0  0
   -5.0783   -8.0566    5.4423 F   0  0  0  0  0  0
   -7.1967   -5.3955    2.1261 F   0  0  0  0  0  0
    0.0796    0.4460    0.5591 H   0  0  0  0  0  0
   -0.6907    1.5748    1.7250 H   0  0  0  0  0  0
   -0.7598    1.9180   -0.0369 H   0  0  0  0  0  0
   -4.2220    0.7260    0.7824 H   0  0  0  0  0  0
   -3.2652    2.0811    0.0931 H   0  0  0  0  0  0
   -3.1961    1.7379    1.8550 H   0  0  0  0  0  0
   -3.1307   -0.7612   -0.9465 H   0  0  0  0  0  0
   -1.3392   -0.8351   -1.0548 H   0  0  0  0  0  0
   -2.2062    0.6664   -1.5244 H   0  0  0  0  0  0
   -3.9738   -3.3883    5.1885 H   0  0  0  0  0  0
   -3.6761   -3.9474    7.6095 H   0  0  0  0  0  0
    1.0920   -1.4799    7.3019 H   0  0  0  0  0  0
    0.3808   -2.2948    8.8704 H   0  0  0  0  0  0
   -0.3794   -4.4965    3.5803 H   0  0  0  0  0  0
   -0.5447   -6.9577    3.5834 H   0  0  0  0  0  0
   -2.5239   -8.0783    2.6147 H   0  0  0  0  0  0
   -7.8708   -3.8548    4.1173 H   0  0  0  0  0  0
   -7.2832   -4.2613    6.4933 H   0  0  0  0  0  0
   -5.9537   -6.2611    7.1175 H   0  0  0  0  0  0
   -1.7497   -3.3472    8.8390 H   0  0  0  0  0  0
  1  2  1  0  0  0
  1 36  1  0  0  0
  1 37  1  0  0  0
  1 38  1  0  0  0
  2  3  1  0  0  0
  2  4  1  0  0  0
  2  5  1  0  0  0
  3 39  1  0  0  0
  3 40  1  0  0  0
  3 41  1  0  0  0
  4 42  1  0  0  0
  4 43  1  0  0  0
  4 44  1  0  0  0
  5  9  1  0  0  0
  5  6  2  0  0  0
  6  7  1  0  0  0
  7  8  2  0  0  0
  7 17  1  0  0  0
  8  9  1  0  0  0
  8 10  1  0  0  0
 10 15  2  0  0  0
 10 11  1  0  0  0
 11 12  2  0  0  0
 11 45  1  0  0  0
 12 13  1  0  0  0
 12 46  1  0  0  0
 13 14  2  0  0  0
 13 55  1  0  0  0
 14 15  1  0  0  0
 14 16  1  0  0  0
 16 47  1  0  0  0
 16 48  1  0  0  0
 17 22  2  0  0  0
 17 18  1  0  0  0
 18 19  2  0  0  0
 18 49  1  0  0  0
 19 20  1  0  0  0
 19 50  1  0  0  0
 20 21  2  0  0  0
 20 51  1  0  0  0
 21 22  1  0  0  0
 21 24  1  0  0  0
 22 23  1  0  0  0
 24 25  1  0  0  0
 25 26  2  0  0  0
 25 27  2  0  0  0
 25 28  1  0  0  0
 28 33  2  0  0  0
 28 29  1  0  0  0
 29 30  2  0  0  0
 29 35  1  0  0  0
 30 31  1  0  0  0
 30 52  1  0  0  0
 31 32  2  0  0  0
 31 53  1  0  0  0
 32 33  1  0  0  0
 32 54  1  0  0  0
 33 34  1  0  0  0
M  CHG  2  13   1  24  -1
M  END
> <s_m_source_file>
/Users/andrea/Development/mcce-charges/epik_inhibitors/output/Dabrafenib/Dabrafenib-input.mol2

> <i_m_source_file_index>
1

> <r_epik_Ionization_Penalty>
  7.0530

> <r_epik_Ionization_Penalty_Charging>
  7.0477

> <r_epik_Ionization_Penalty_Neutral>
  0.0054

> <r_epik_State_Penalty>
 12.4367

> <i_epik_Tot_Q>
0

$$$$
~{N}-[3-[5-(2-aminopyrimidin-4-yl)-2-~{tert}-butyl-thiazol-4-yl]-2-fluoro-phenyl]-2,6-difluoro-benzenesulfonamide
                    3D
 Structure written by MMmdl.
 55 58  0  0  1  0            999 V2000
   -0.7704    1.1243    0.7246 C   0  0  0  0  0  0
   -2.0904    0.3299    0.6216 C   0  0  0  0  0  0
   -3.2789    1.2876    0.8548 C   0  0  0  0  0  0
   -2.1995   -0.1873   -0.8307 C   0  0  0  0  0  0
   -2.1077   -0.7840    1.6815 C   0  0  0  0  0  0
   -2.2053   -2.0668    1.4112 N   0  0  0  0  0  0
   -2.1915   -2.7753    2.5968 C   0  0  0  0  0  0
   -2.0846   -2.0224    3.7475 C   0  0  0  0  0  0
   -1.9952   -0.3589    3.3402 S   0  0  0  0  0  0
   -2.0399   -2.4085    5.1380 C   0  0  0  0  0  0
   -3.0793   -3.0998    5.7264 C   0  0  0  0  0  0
   -2.9119   -3.4069    7.0613 C   0  0  0  0  0  0
   -1.8185   -3.0705    7.7766 N   0  0  0  0  0  0
   -0.8750   -2.3985    7.0899 C   0  0  0  0  0  0
   -0.9190   -2.0403    5.7925 N   0  3  0  0  0  0
    0.2847   -2.0306    7.8069 N   0  0  0  0  0  0
   -2.2873   -4.2090    2.5984 C   0  0  0  0  0  0
   -1.2577   -4.9716    3.1498 C   0  0  0  0  0  0
   -1.3462   -6.3637    3.1539 C   0  0  0  0  0  0
   -2.4642   -6.9931    2.6065 C   0  0  0  0  0  0
   -3.4937   -6.2304    2.0551 C   0  0  0  0  0  0
   -3.4053   -4.8383    2.0510 C   0  0  0  0  0  0
   -4.3989   -4.1093    1.5188 F   0  0  0  0  0  0
   -4.6360   -6.8785    1.4949 N   0  5  0  0  0  0
   -5.5977   -7.8873    2.5075 S   0  0  0  0  0  0
   -6.7853   -8.2929    1.7791 O   0  0  0  0  0  0
   -4.7656   -8.8899    3.1443 O   0  0  0  0  0  0
   -6.1261   -6.7507    3.7572 C   0  0  0  0  0  0
   -6.8731   -5.6261    3.4063 C   0  0  0  0  0  0
   -7.2894   -4.7303    4.3911 C   0  0  0  0  0  0
   -6.9586   -4.9589    5.7268 C   0  0  0  0  0  0
   -6.2116   -6.0835    6.0776 C   0  0  0  0  0  0
   -5.7953   -6.9793    5.0928 C   0  0  0  0  0  0
   -5.0783   -8.0566    5.4423 F   0  0  0  0  0  0
   -7.1967   -5.3955    2.1261 F   0  0  0  0  0  0
    0.0796    0.4460    0.5591 H   0  0  0  0  0  0
   -0.6907    1.5748    1.7250 H   0  0  0  0  0  0
   -0.7598    1.9180   -0.0369 H   0  0  0  0  0  0
   -4.2220    0.7260    0.7824 H   0  0  0  0  0  0
   -3.2652    2.0811    0.0931 H   0  0  0  0  0  0
   -3.1961    1.7379    1.8550 H   0  0  0  0  0  0
   -3.1307   -0.7612   -0.9465 H   0  0  0  0  0  0
   -1.3392   -0.8351   -1.0548 H   0  0  0  0  0  0
   -2.2062    0.6664   -1.5244 H   0  0  0  0  0  0
   -3.9738   -3.3883    5.1885 H   0  0  0  0  0  0
   -3.6761   -3.9474    7.6095 H   0  0  0  0  0  0
    1.0920   -1.4799    7.3019 H   0  0  0  0  0  0
    0.3808   -2.2948    8.8704 H   0  0  0  0  0  0
   -0.3794   -4.4965    3.5803 H   0  0  0  0  0  0
   -0.5447   -6.9577    3.5834 H   0  0  0  0  0  0
   -2.5239   -8.0783    2.6147 H   0  0  0  0  0  0
   -7.8708   -3.8548    4.1173 H   0  0  0  0  0  0
   -7.2832   -4.2613    6.4933 H   0  0  0  0  0  0
   -5.9537   -6.2611    7.1175 H   0  0  0  0  0  0
   -0.1281   -1.4897    5.2621 H   0  0  0  0  0  0
  1  2  1  0  0  0
  1 36  1  0  0  0
  1 37  1  0  0  0
  1 38  1  0  0  0
  2  3  1  0  0  0
  2  4  1  0  0  0
  2  5  1  0  0  0
  3 39  1  0  0  0
  3 40  1  0  0  0
  3 41  1  0  0  0
  4 42  1  0  0  0
  4 43  1  0  0  0
  4 44  1  0  0  0
  5  9  1  0  0  0
  5  6  2  0  0  0
  6  7  1  0  0  0
  7  8  2  0  0  0
  7 17  1  0  0  0
  8  9  1  0  0  0
  8 10  1  0  0  0
 10 15  2  0  0  0
 10 11  1  0  0  0
 11 12  2  0  0  0
 11 45  1  0  0  0
 12 13  1  0  0  0
 12 46  1  0  0  0
 13 14  2  0  0  0
 14 15  1  0  0  0
 14 16  1  0  0  0
 15 55  1  0  0  0
 16 47  1  0  0  0
 16 48  1  0  0  0
 17 22  2  0  0  0
 17 18  1  0  0  0
 18 19  2  0  0  0
 18 49  1  0  0  0
 19 20  1  0  0  0
 19 50  1  0  0  0
 20 21  2  0  0  0
 20 51  1  0  0  0
 21 22  1  0  0  0
 21 24  1  0  0  0
 22 23  1  0  0  0
 24 25  1  0  0  0
 25 26  2  0  0  0
 25 27  2  0  0  0
 25 28  1  0  0  0
 28 33  2  0  0  0
 28 29  1  0  0  0
 29 30  2  0  0  0
 29 35  1  0  0  0
 30 31  1  0  0  0
 30 52  1  0  0  0
 31 32  2  0  0  0
 31 53  1  0  0  0
 32 33  1  0  0  0
 32 54  1  0  0  0
 33 34  1  0  0  0
M  CHG  2  15   1  24  -1
M  END
> <s_m_source_file>
/Users/andrea/Development/mcce-charges/epik_inhibitors/output/Dabrafenib/Dabrafenib-input.mol2

> <i_m_source_file_index>
1

> <r_epik_Ionization_Penalty>
  8.9245

> <r_epik_Ionization_Penalty_Charging>
  8.9191

> <r_epik_Ionization_Penalty_Neutral>
  0.0054

> <r_epik_State_Penalty>
 12.9317

> <i_epik_Tot_Q>
0

$$$$
~{N}-[3-[5-(2-aminopyrimidin-4-yl)-2-~{tert}-butyl-thiazol-4-yl]-2-fluoro-phenyl]-2,6-difluoro-benzenesulfonamide
                    3D
 Structure written by MMmdl.
 56 59  0  0  1  0            999 V2000
   -0.7704    1.1243    0.7246 C   0  0  0  0  0  0
   -2.0904    0.3299    0.6216 C   0  0  0  0  0  0
   -3.2789    1.2876    0.8548 C   0  0  0  0  0  0
   -2.1995   -0.1873   -0.8307 C   0  0  0  0  0  0
   -2.1077   -0.7840    1.6815 C   0  0  0  0  0  0
   -2.2053   -2.0668    1.4112 N   0  0  0  0  0  0
   -2.1915   -2.7753    2.5968 C   0  0  0  0  0  0
   -2.0846   -2.0224    3.7475 C   0  0  0  0  0  0
   -1.9952   -0.3589    3.3402 S   0  0  0  0  0  0
   -2.0399   -2.4085    5.1380 C   0  0  0  0  0  0
   -3.0793   -3.0998    5.7264 C   0  0  0  0  0  0
   -2.9119   -3.4069    7.0613 C   0  0  0  0  0  0
   -1.8185   -3.0705    7.7766 N   0  3  0  0  0  0
   -0.8750   -2.3985    7.0899 C   0  0  0  0  0  0
   -0.9190   -2.0403    5.7925 N   0  0  0  0  0  0
    0.2847   -2.0306    7.8069 N   0  0  0  0  0  0
   -2.2873   -4.2090    2.5984 C   0  0  0  0  0  0
   -1.2577   -4.9716    3.1498 C   0  0  0  0  0  0
   -1.3462   -6.3637    3.1539 C   0  0  0  0  0  0
   -2.4642   -6.9931    2.6065 C   0  0  0  0  0  0
   -3.4937   -6.2304    2.0551 C   0  0  0  0  0  0
   -3.4053   -4.8383    2.0510 C   0  0  0  0  0  0
   -4.3989   -4.1093    1.5188 F   0  0  0  0  0  0
   -4.6360   -6.8785    1.4949 N   0  0  0  0  0  0
   -5.5977   -7.8873    2.5075 S   0  0  0  0  0  0
   -6.7853   -8.2929    1.7791 O   0  0  0  0  0  0
   -4.7656   -8.8899    3.1443 O   0  0  0  0  0  0
   -6.1261   -6.7507    3.7572 C   0  0  0  0  0  0
   -6.8731   -5.6261    3.4063 C   0  0  0  0  0  0
   -7.2894   -4.7303    4.3911 C   0  0  0  0  0  0
   -6.9586   -4.9589    5.7268 C   0  0  0  0  0  0
   -6.2116   -6.0835    6.0776 C   0  0  0  0  0  0
   -5.7953   -6.9793    5.0928 C   0  0  0  0  0  0
   -5.0783   -8.0566    5.4423 F   0  0  0  0  0  0
   -7.1967   -5.3955    2.1261 F   0  0  0  0  0  0
    0.0796    0.4460    0.5591 H   0  0  0  0  0  0
   -0.6907    1.5748    1.7250 H   0  0  0  0  0  0
   -0.7598    1.9180   -0.0369 H   0  0  0  0  0  0
   -4.2220    0.7260    0.7824 H   0  0  0  0  0  0
   -3.2652    2.0811    0.0931 H   0  0  0  0  0  0
   -3.1961    1.7379    1.8550 H   0  0  0  0  0  0
   -3.1307   -0.7612   -0.9465 H   0  0  0  0  0  0
   -1.3392   -0.8351   -1.0548 H   0  0  0  0  0  0
   -2.2062    0.6664   -1.5244 H   0  0  0  0  0  0
   -3.9738   -3.3883    5.1885 H   0  0  0  0  0  0
   -3.6761   -3.9474    7.6095 H   0  0  0  0  0  0
    1.0920   -1.4799    7.3019 H   0  0  0  0  0  0
    0.3808   -2.2948    8.8704 H   0  0  0  0  0  0
   -0.3794   -4.4965    3.5803 H   0  0  0  0  0  0
   -0.5447   -6.9577    3.5834 H   0  0  0  0  0  0
   -2.5239   -8.0783    2.6147 H   0  0  0  0  0  0
   -4.9063   -6.7432    0.4373 H   0  0  0  0  0  0
   -7.8708   -3.8548    4.1173 H   0  0  0  0  0  0
   -7.2832   -4.2613    6.4933 H   0  0  0  0  0  0
   -5.9537   -6.2611    7.1175 H   0  0  0  0  0  0
   -1.7497   -3.3472    8.8390 H   0  0  0  0  0  0
  1  2  1  0  0  0
  1 36  1  0  0  0
  1 37  1  0  0  0
  1 38  1  0  0  0
  2  3  1  0  0  0
  2  4  1  0  0  0
  2  5  1  0  0  0
  3 39  1  0  0  0
  3 40  1  0  0  0
  3 41  1  0  0  0
  4 42  1  0  0  0
  4 43  1  0  0  0
  4 44  1  0  0  0
  5  9  1  0  0  0
  5  6  2  0  0  0
  6  7  1  0  0  0
  7  8  2  0  0  0
  7 17  1  0  0  0
  8  9  1  0  0  0
  8 10  1  0  0  0
 10 15  2  0  0  0
 10 11  1  0  0  0
 11 12  2  0  0  0
 11 45  1  0  0  0
 12 13  1  0  0  0
 12 46  1  0  0  0
 13 14  2  0  0  0
 13 56  1  0  0  0
 14 15  1  0  0  0
 14 16  1  0  0  0
 16 47  1  0  0  0
 16 48  1  0  0  0
 17 22  2  0  0  0
 17 18  1  0  0  0
 18 19  2  0  0  0
 18 49  1  0  0  0
 19 20  1  0  0  0
 19 50  1  0  0  0
 20 21  2  0  0  0
 20 51  1  0  0  0
 21 22  1  0  0  0
 21 24  1  0  0  0
 22 23  1  0  0  0
 24 25  1  0  0  0
 24 52  1  0  0  0
 25 26  2  0  0  0
 25 27  2  0  0  0
 25 28  1  0  0  0
 28 33  2  0  0  0
 28 29  1  0  0  0
 29 30  2  0  0  0
 29 35  1  0  0  0
 30 31  1  0  0  0
 30 53  1  0  0  0
 31 32  2  0  0  0
 31 54  1  0  0  0
 32 33  1  0  0  0
 32 55  1  0  0  0
 33 34  1  0  0  0
M  CHG  1  13   1
M  END
> <s_m_source_file>
/Users/andrea/Development/mcce-charges/epik_inhibitors/output/Dabrafenib/Dabrafenib-input.mol2

> <i_m_source_file_index>
1

> <r_epik_Ionization_Penalty>
  7.5888

> <r_epik_Ionization_Penalty_Charging>
  6.8463

> <r_epik_Ionization_Penalty_Neutral>
  0.7425

> <r_epik_State_Penalty>
 13.0156

> <i_epik_Tot_Q>
1

$$$$
~{N}-[3-[5-(2-aminopyrimidin-4-yl)-2-~{tert}-butyl-thiazol-4-yl]-2-fluoro-phenyl]-2,6-difluoro-benzenesulfonamide
                    3D
 Structure written by MMmdl.
 53 56  0  0  1  0            999 V2000
   -0.7718    1.1265    0.7258 C   0  0  0  0  0  0
   -2.0917    0.3318    0.6227 C   0  0  0  0  0  0
   -3.2803    1.2892    0.8563 C   0  0  0  0  0  0
   -2.2008   -0.1849   -0.8298 C   0  0  0  0  0  0
   -2.1086   -0.7824    1.6822 C   0  0  0  0  0  0
   -2.2060   -2.0651    1.4115 N   0  0  0  0  0  0
   -2.1919   -2.7740    2.5968 C   0  0  0  0  0  0
   -2.0850   -2.0215    3.7478 C   0  0  0  0  0  0
   -1.9960   -0.3579    3.3410 S   0  0  0  0  0  0
   -2.0401   -2.4081    5.1381 C   0  0  0  0  0  0
   -3.0793   -3.0998    5.7264 C   0  0  0  0  0  0
   -2.9117   -3.4073    7.0612 C   0  0  0  0  0  0
   -1.8175   -3.0726    7.7760 N   0  0  0  0  0  0
   -0.8740   -2.4005    7.0893 C   0  0  0  0  0  0
   -0.9187   -2.0408    5.7923 N   0  5  0  0  0  0
    0.2862   -2.0336    7.8060 N   0  0  0  0  0  0
   -2.2874   -4.2078    2.5979 C   0  0  0  0  0  0
   -1.2576   -4.9703    3.1490 C   0  0  0  0  0  0
   -1.3458   -6.3625    3.1526 C   0  0  0  0  0  0
   -2.4637   -6.9919    2.6051 C   0  0  0  0  0  0
   -3.4934   -6.2292    2.0541 C   0  0  0  0  0  0
   -3.4053   -4.8371    2.0504 C   0  0  0  0  0  0
   -4.3991   -4.1081    1.5186 F   0  0  0  0  0  0
   -4.6357   -6.8774    1.4938 N   0  5  0  0  0  0
   -5.5970   -7.8867    2.5061 S   0  0  0  0  0  0
   -6.7846   -8.2923    1.7777 O   0  0  0  0  0  0
   -4.7647   -8.8894    3.1425 O   0  0  0  0  0  0
   -6.1255   -6.7507    3.7563 C   0  0  0  0  0  0
   -6.8728   -5.6261    3.4058 C   0  0  0  0  0  0
   -7.2892   -4.7307    4.3910 C   0  0  0  0  0  0
   -6.9582   -4.9597    5.7266 C   0  0  0  0  0  0
   -6.2109   -6.0843    6.0769 C   0  0  0  0  0  0
   -5.7946   -6.9797    5.0918 C   0  0  0  0  0  0
   -5.0773   -8.0569    5.4408 F   0  0  0  0  0  0
   -7.1966   -5.3951    2.1258 F   0  0  0  0  0  0
    0.0783    0.4484    0.5600 H   0  0  0  0  0  0
   -0.6921    1.5766    1.7263 H   0  0  0  0  0  0
   -0.7615    1.9205   -0.0354 H   0  0  0  0  0  0
   -4.2233    0.7275    0.7838 H   0  0  0  0  0  0
   -3.2669    2.0830    0.0949 H   0  0  0  0  0  0
   -3.1976    1.7392    1.8567 H   0  0  0  0  0  0
   -3.1319   -0.7590   -0.9457 H   0  0  0  0  0  0
   -1.3404   -0.8325   -1.0542 H   0  0  0  0  0  0
   -2.2078    0.6690   -1.5232 H   0  0  0  0  0  0
   -3.8854   -3.3446    5.1876 H   0  0  0  0  0  0
   -3.6594   -3.9086    7.4967 H   0  0  0  0  0  0
    1.0399   -1.5743    7.3360 H   0  0  0  0  0  0
   -0.3793   -4.4952    3.5795 H   0  0  0  0  0  0
   -0.5441   -6.9564    3.5818 H   0  0  0  0  0  0
   -2.5232   -8.0771    2.6129 H   0  0  0  0  0  0
   -7.8708   -3.8553    4.1176 H   0  0  0  0  0  0
   -7.2829   -4.2624    6.4934 H   0  0  0  0  0  0
   -5.9529   -6.2622    7.1167 H   0  0  0  0  0  0
  1  2  1  0  0  0
  1 36  1  0  0  0
  1 37  1  0  0  0
  1 38  1  0  0  0
  2  3  1  0  0  0
  2  4  1  0  0  0
  2  5  1  0  0  0
  3 39  1  0  0  0
  3 40  1  0  0  0
  3 41  1  0  0  0
  4 42  1  0  0  0
  4 43  1  0  0  0
  4 44  1  0  0  0
  5  9  1  0  0  0
  5  6  2  0  0  0
  6  7  1  0  0  0
  7  8  2  0  0  0
  7 17  1  0  0  0
  8  9  1  0  0  0
  8 10  1  0  0  0
 10 11  2  0  0  0
 10 15  1  0  0  0
 11 12  1  0  0  0
 11 45  1  0  0  0
 12 13  2  0  0  0
 12 46  1  0  0  0
 13 14  1  0  0  0
 14 16  2  0  0  0
 14 15  1  0  0  0
 16 47  1  0  0  0
 17 22  2  0  0  0
 17 18  1  0  0  0
 18 19  2  0  0  0
 18 48  1  0  0  0
 19 20  1  0  0  0
 19 49  1  0  0  0
 20 21  2  0  0  0
 20 50  1  0  0  0
 21 22  1  0  0  0
 21 24  1  0  0  0
 22 23  1  0  0  0
 24 25  1  0  0  0
 25 26  2  0  0  0
 25 27  2  0  0  0
 25 28  1  0  0  0
 28 33  2  0  0  0
 28 29  1  0  0  0
 29 30  2  0  0  0
 29 35  1  0  0  0
 30 31  1  0  0  0
 30 51  1  0  0  0
 31 32  2  0  0  0
 31 52  1  0  0  0
 32 33  1  0  0  0
 32 53  1  0  0  0
 33 34  1  0  0  0
M  CHG  2  15  -1  24  -1
M  END
> <s_m_source_file>
/Users/andrea/Development/mcce-charges/epik_inhibitors/output/Dabrafenib/Dabrafenib-input.mol2

> <i_m_source_file_index>
1

> <r_epik_Ionization_Penalty>
  7.7831

> <r_epik_Ionization_Penalty_Charging>
  0.2246

> <r_epik_Ionization_Penalty_Neutral>
  7.5585

> <r_epik_State_Penalty>
 13.3148

> <i_epik_Tot_Q>
-2

> <s_epik_Chemistry_Notes>
This compound has an imine and may undergo hydrolysis.

$$$$
~{N}-[3-[5-(2-aminopyrimidin-4-yl)-2-~{tert}-butyl-thiazol-4-yl]-2-fluoro-phenyl]-2,6-difluoro-benzenesulfonamide
                    3D
 Structure written by MMmdl.
 53 56  0  0  1  0            999 V2000
   -0.7718    1.1265    0.7258 C   0  0  0  0  0  0
   -2.0917    0.3318    0.6227 C   0  0  0  0  0  0
   -3.2803    1.2892    0.8563 C   0  0  0  0  0  0
   -2.2008   -0.1849   -0.8298 C   0  0  0  0  0  0
   -2.1086   -0.7824    1.6822 C   0  0  0  0  0  0
   -2.2060   -2.0651    1.4115 N   0  0  0  0  0  0
   -2.1919   -2.7740    2.5968 C   0  0  0  0  0  0
   -2.0850   -2.0215    3.7478 C   0  0  0  0  0  0
   -1.9960   -0.3579    3.3410 S   0  0  0  0  0  0
   -2.0401   -2.4081    5.1381 C   0  0  0  0  0  0
   -3.0793   -3.0998    5.7264 C   0  0  0  0  0  0
   -2.9117   -3.4073    7.0612 C   0  0  0  0  0  0
   -1.8175   -3.0726    7.7760 N   0  0  0  0  0  0
   -0.8740   -2.4005    7.0893 C   0  0  0  0  0  0
   -0.9187   -2.0408    5.7923 N   0  5  0  0  0  0
    0.2862   -2.0336    7.8060 N   0  0  0  0  0  0
   -2.2874   -4.2078    2.5979 C   0  0  0  0  0  0
   -1.2576   -4.9703    3.1490 C   0  0  0  0  0  0
   -1.3458   -6.3625    3.1526 C   0  0  0  0  0  0
   -2.4637   -6.9919    2.6051 C   0  0  0  0  0  0
   -3.4934   -6.2292    2.0541 C   0  0  0  0  0  0
   -3.4053   -4.8371    2.0504 C   0  0  0  0  0  0
   -4.3991   -4.1081    1.5186 F   0  0  0  0  0  0
   -4.6357   -6.8774    1.4938 N   0  5  0  0  0  0
   -5.5970   -7.8867    2.5061 S   0  0  0  0  0  0
   -6.7846   -8.2923    1.7777 O   0  0  0  0  0  0
   -4.7647   -8.8894    3.1425 O   0  0  0  0  0  0
   -6.1255   -6.7507    3.7563 C   0  0  0  0  0  0
   -6.8728   -5.6261    3.4058 C   0  0  0  0  0  0
   -7.2892   -4.7307    4.3910 C   0  0  0  0  0  0
   -6.9582   -4.9597    5.7266 C   0  0  0  0  0  0
   -6.2109   -6.0843    6.0769 C   0  0  0  0  0  0
   -5.7946   -6.9797    5.0918 C   0  0  0  0  0  0
   -5.0773   -8.0569    5.4408 F   0  0  0  0  0  0
   -7.1966   -5.3951    2.1258 F   0  0  0  0  0  0
    0.0783    0.4484    0.5600 H   0  0  0  0  0  0
   -0.6921    1.5766    1.7263 H   0  0  0  0  0  0
   -0.7615    1.9205   -0.0354 H   0  0  0  0  0  0
   -4.2233    0.7275    0.7838 H   0  0  0  0  0  0
   -3.2669    2.0830    0.0949 H   0  0  0  0  0  0
   -3.1976    1.7392    1.8567 H   0  0  0  0  0  0
   -3.1319   -0.7590   -0.9457 H   0  0  0  0  0  0
   -1.3404   -0.8325   -1.0542 H   0  0  0  0  0  0
   -2.2078    0.6690   -1.5232 H   0  0  0  0  0  0
   -3.8854   -3.3446    5.1876 H   0  0  0  0  0  0
   -3.6594   -3.9086    7.4967 H   0  0  0  0  0  0
    0.3540   -2.2331    8.7836 H   0  0  0  0  0  0
   -0.3793   -4.4952    3.5795 H   0  0  0  0  0  0
   -0.5441   -6.9564    3.5818 H   0  0  0  0  0  0
   -2.5232   -8.0771    2.6129 H   0  0  0  0  0  0
   -7.8708   -3.8553    4.1176 H   0  0  0  0  0  0
   -7.2829   -4.2624    6.4934 H   0  0  0  0  0  0
   -5.9529   -6.2622    7.1167 H   0  0  0  0  0  0
  1  2  1  0  0  0
  1 36  1  0  0  0
  1 37  1  0  0  0
  1 38  1  0  0  0
  2  3  1  0  0  0
  2  4  1  0  0  0
  2  5  1  0  0  0
  3 39  1  0  0  0
  3 40  1  0  0  0
  3 41  1  0  0  0
  4 42  1  0  0  0
  4 43  1  0  0  0
  4 44  1  0  0  0
  5  9  1  0  0  0
  5  6  2  0  0  0
  6  7  1  0  0  0
  7  8  2  0  0  0
  7 17  1  0  0  0
  8  9  1  0  0  0
  8 10  1  0  0  0
 10 11  2  0  0  0
 10 15  1  0  0  0
 11 12  1  0  0  0
 11 45  1  0  0  0
 12 13  2  0  0  0
 12 46  1  0  0  0
 13 14  1  0  0  0
 14 16  2  0  0  0
 14 15  1  0  0  0
 16 47  1  0  0  0
 17 22  2  0  0  0
 17 18  1  0  0  0
 18 19  2  0  0  0
 18 48  1  0  0  0
 19 20  1  0  0  0
 19 49  1  0  0  0
 20 21  2  0  0  0
 20 50  1  0  0  0
 21 22  1  0  0  0
 21 24  1  0  0  0
 22 23  1  0  0  0
 24 25  1  0  0  0
 25 26  2  0  0  0
 25 27  2  0  0  0
 25 28  1  0  0  0
 28 33  2  0  0  0
 28 29  1  0  0  0
 29 30  2  0  0  0
 29 35  1  0  0  0
 30 31  1  0  0  0
 30 51  1  0  0  0
 31 32  2  0  0  0
 31 52  1  0  0  0
 32 33  1  0  0  0
 32 53  1  0  0  0
 33 34  1  0  0  0
M  CHG  2  15  -1  24  -1
M  END
> <s_m_source_file>
/Users/andrea/Development/mcce-charges/epik_inhibitors/output/Dabrafenib/Dabrafenib-input.mol2

> <i_m_source_file_index>
1

> <r_epik_Ionization_Penalty>
  7.7831

> <r_epik_Ionization_Penalty_Charging>
  0.2246

> <r_epik_Ionization_Penalty_Neutral>
  7.5585

> <r_epik_State_Penalty>
 13.3148

> <i_epik_Tot_Q>
-2

> <s_epik_Chemistry_Notes>
This compound has an imine and may undergo hydrolysis.

$$$$
~{N}-[3-[5-(2-aminopyrimidin-4-yl)-2-~{tert}-butyl-thiazol-4-yl]-2-fluoro-phenyl]-2,6-difluoro-benzenesulfonamide
                    3D
 Structure written by MMmdl.
 56 59  0  0  1  0            999 V2000
   -0.7704    1.1243    0.7246 C   0  0  0  0  0  0
   -2.0904    0.3299    0.6216 C   0  0  0  0  0  0
   -3.2789    1.2876    0.8548 C   0  0  0  0  0  0
   -2.1995   -0.1873   -0.8307 C   0  0  0  0  0  0
   -2.1077   -0.7840    1.6815 C   0  0  0  0  0  0
   -2.2053   -2.0668    1.4112 N   0  0  0  0  0  0
   -2.1915   -2.7753    2.5968 C   0  0  0  0  0  0
   -2.0846   -2.0224    3.7475 C   0  0  0  0  0  0
   -1.9952   -0.3589    3.3402 S   0  0  0  0  0  0
   -2.0399   -2.4085    5.1380 C   0  0  0  0  0  0
   -3.0793   -3.0998    5.7264 C   0  0  0  0  0  0
   -2.9119   -3.4069    7.0613 C   0  0  0  0  0  0
   -1.8185   -3.0705    7.7766 N   0  0  0  0  0  0
   -0.8750   -2.3985    7.0899 C   0  0  0  0  0  0
   -0.9190   -2.0403    5.7925 N   0  3  0  0  0  0
    0.2847   -2.0306    7.8069 N   0  0  0  0  0  0
   -2.2873   -4.2090    2.5984 C   0  0  0  0  0  0
   -1.2577   -4.9716    3.1498 C   0  0  0  0  0  0
   -1.3462   -6.3637    3.1539 C   0  0  0  0  0  0
   -2.4642   -6.9931    2.6065 C   0  0  0  0  0  0
   -3.4937   -6.2304    2.0551 C   0  0  0  0  0  0
   -3.4053   -4.8383    2.0510 C   0  0  0  0  0  0
   -4.3989   -4.1093    1.5188 F   0  0  0  0  0  0
   -4.6360   -6.8785    1.4949 N   0  0  0  0  0  0
   -5.5977   -7.8873    2.5075 S   0  0  0  0  0  0
   -6.7853   -8.2929    1.7791 O   0  0  0  0  0  0
   -4.7656   -8.8899    3.1443 O   0  0  0  0  0  0
   -6.1261   -6.7507    3.7572 C   0  0  0  0  0  0
   -6.8731   -5.6261    3.4063 C   0  0  0  0  0  0
   -7.2894   -4.7303    4.3911 C   0  0  0  0  0  0
   -6.9586   -4.9589    5.7268 C   0  0  0  0  0  0
   -6.2116   -6.0835    6.0776 C   0  0  0  0  0  0
   -5.7953   -6.9793    5.0928 C   0  0  0  0  0  0
   -5.0783   -8.0566    5.4423 F   0  0  0  0  0  0
   -7.1967   -5.3955    2.1261 F   0  0  0  0  0  0
    0.0796    0.4460    0.5591 H   0  0  0  0  0  0
   -0.6907    1.5748    1.7250 H   0  0  0  0  0  0
   -0.7598    1.9180   -0.0369 H   0  0  0  0  0  0
   -4.2220    0.7260    0.7824 H   0  0  0  0  0  0
   -3.2652    2.0811    0.0931 H   0  0  0  0  0  0
   -3.1961    1.7379    1.8550 H   0  0  0  0  0  0
   -3.1307   -0.7612   -0.9465 H   0  0  0  0  0  0
   -1.3392   -0.8351   -1.0548 H   0  0  0  0  0  0
   -2.2062    0.6664   -1.5244 H   0  0  0  0  0  0
   -3.9738   -3.3883    5.1885 H   0  0  0  0  0  0
   -3.6761   -3.9474    7.6095 H   0  0  0  0  0  0
    1.0920   -1.4799    7.3019 H   0  0  0  0  0  0
    0.3808   -2.2948    8.8704 H   0  0  0  0  0  0
   -0.3794   -4.4965    3.5803 H   0  0  0  0  0  0
   -0.5447   -6.9577    3.5834 H   0  0  0  0  0  0
   -2.5239   -8.0783    2.6147 H   0  0  0  0  0  0
   -4.9063   -6.7432    0.4373 H   0  0  0  0  0  0
   -7.8708   -3.8548    4.1173 H   0  0  0  0  0  0
   -7.2832   -4.2613    6.4933 H   0  0  0  0  0  0
   -5.9537   -6.2611    7.1175 H   0  0  0  0  0  0
   -0.1281   -1.4897    5.2621 H   0  0  0  0  0  0
  1  2  1  0  0  0
  1 36  1  0  0  0
  1 37  1  0  0  0
  1 38  1  0  0  0
  2  3  1  0  0  0
  2  4  1  0  0  0
  2  5  1  0  0  0
  3 39  1  0  0  0
  3 40  1  0  0  0
  3 41  1  0  0  0
  4 42  1  0  0  0
  4 43  1  0  0  0
  4 44  1  0  0  0
  5  9  1  0  0  0
  5  6  2  0  0  0
  6  7  1  0  0  0
  7  8  2  0  0  0
  7 17  1  0  0  0
  8  9  1  0  0  0
  8 10  1  0  0  0
 10 15  2  0  0  0
 10 11  1  0  0  0
 11 12  2  0  0  0
 11 45  1  0  0  0
 12 13  1  0  0  0
 12 46  1  0  0  0
 13 14  2  0  0  0
 14 15  1  0  0  0
 14 16  1  0  0  0
 15 56  1  0  0  0
 16 47  1  0  0  0
 16 48  1  0  0  0
 17 22  2  0  0  0
 17 18  1  0  0  0
 18 19  2  0  0  0
 18 49  1  0  0  0
 19 20  1  0  0  0
 19 50  1  0  0  0
 20 21  2  0  0  0
 20 51  1  0  0  0
 21 22  1  0  0  0
 21 24  1  0  0  0
 22 23  1  0  0  0
 24 25  1  0  0  0
 24 52  1  0  0  0
 25 26  2  0  0  0
 25 27  2  0  0  0
 25 28  1  0  0  0
 28 33  2  0  0  0
 28 29  1  0  0  0
 29 30  2  0  0  0
 29 35  1  0  0  0
 30 31  1  0  0  0
 30 53  1  0  0  0
 31 32  2  0  0  0
 31 54  1  0  0  0
 32 33  1  0  0  0
 32 55  1  0  0  0
 33 34  1  0  0  0
M  CHG  1  15   1
M  END
> <s_m_source_file>
/Users/andrea/Development/mcce-charges/epik_inhibitors/output/Dabrafenib/Dabrafenib-input.mol2

> <i_m_source_file_index>
1

> <r_epik_Ionization_Penalty>
  9.4603

> <r_epik_Ionization_Penalty_Charging>
  8.7177

> <r_epik_Ionization_Penalty_Neutral>
  0.7425

> <r_epik_State_Penalty>
 13.5054

> <i_epik_Tot_Q>
1

$$$$
