@<TRIPOS>MOLECULE
~{N}-[3-[5-(2-aminopyrimidin-4-yl)-2-~{tert}-butyl-thiazol-4-yl]-2-fluoro-phenyl]-2,6-difluoro-benzenesulfonamide
   55    58     0     0     0
SMALL
USER_CHARGES

@<TRIPOS>ATOM
      1 C1         -0.7704    1.1243    0.7246 C.3       1 DAB        -0.0874
      2 C2         -2.0904    0.3299    0.6216 C.3       1 DAB        -0.0904
      3 C3         -3.2789    1.2876    0.8548 C.3       1 DAB        -0.0874
      4 C4         -2.1995   -0.1873   -0.8307 C.3       1 DAB        -0.0874
      5 C5         -2.1077   -0.7840    1.6815 C.2       1 DAB         0.4021
      6 N1         -2.2053   -2.0668    1.4112 N.2       1 DAB        -0.6027
      7 C6         -2.1915   -2.7753    2.5968 C.2       1 DAB         0.4099
      8 C7         -2.0846   -2.0224    3.7475 C.2       1 DAB        -0.2673
      9 S1         -1.9952   -0.3589    3.3402 S.3       1 DAB        -0.0280
     10 C8         -2.0399   -2.4085    5.1380 C.ar      1 DAB         0.5576
     11 C9         -3.0793   -3.0998    5.7264 C.ar      1 DAB        -0.3973
     12 C10        -2.9119   -3.4069    7.0613 C.ar      1 DAB         0.4640
     13 N2         -1.8185   -3.0705    7.7766 N.ar      1 DAB        -0.7440
     14 C11        -0.8750   -2.3985    7.0899 C.ar      1 DAB         0.8691
     15 N3         -0.9190   -2.0403    5.7925 N.ar      1 DAB        -0.7565
     16 N4          0.2847   -2.0306    7.8069 N.pl3     1 DAB        -0.9315
     17 C12        -2.2873   -4.2090    2.5984 C.ar      1 DAB        -0.1362
     18 C13        -1.2577   -4.9716    3.1498 C.ar      1 DAB        -0.0859
     19 C14        -1.3462   -6.3637    3.1539 C.ar      1 DAB        -0.1275
     20 C15        -2.4642   -6.9931    2.6065 C.ar      1 DAB        -0.1198
     21 C16        -3.4937   -6.2304    2.0551 C.ar      1 DAB         0.1046
     22 C17        -3.4053   -4.8383    2.0510 C.ar      1 DAB         0.1449
     23 F1         -4.3989   -4.1093    1.5188 F         1 DAB        -0.1234
     24 N5         -4.6360   -6.8785    1.4949 N.pl3     1 DAB        -0.7832
     25 S2         -5.5977   -7.8872    2.5075 S.o2      1 DAB         1.5145
     26 O1         -6.7853   -8.2929    1.7791 O.2       1 DAB        -0.6280
     27 O2         -4.7656   -8.8899    3.1443 O.2       1 DAB        -0.6280
     28 C18        -6.1261   -6.7507    3.7572 C.ar      1 DAB        -0.4289
     29 C19        -6.8731   -5.6261    3.4063 C.ar      1 DAB         0.2564
     30 C20        -7.2894   -4.7303    4.3911 C.ar      1 DAB        -0.2110
     31 C21        -6.9586   -4.9589    5.7268 C.ar      1 DAB        -0.0258
     32 C22        -6.2116   -6.0835    6.0776 C.ar      1 DAB        -0.2110
     33 C23        -5.7953   -6.9793    5.0928 C.ar      1 DAB         0.2564
     34 F2         -5.0783   -8.0566    5.4423 F         1 DAB        -0.1105
     35 F3         -7.1967   -5.3955    2.1261 F         1 DAB        -0.1105
     36 H1          0.0966    0.4729    0.5638 H         1 DAB         0.0439
     37 H2         -0.7101    1.9265   -0.0190 H         1 DAB         0.0439
     38 H3         -0.6631    1.5843    1.7142 H         1 DAB         0.0439
     39 H4         -4.2441    0.7734    0.7925 H         1 DAB         0.0439
     40 H5         -3.2256    1.7493    1.8477 H         1 DAB         0.0439
     41 H6         -3.2871    2.0940    0.1120 H         1 DAB         0.0439
     42 H7         -3.1205   -0.7646   -0.9764 H         1 DAB         0.0439
     43 H8         -2.2196    0.6376   -1.5526 H         1 DAB         0.0439
     44 H9         -1.3623   -0.8465   -1.0884 H         1 DAB         0.0439
     45 H10        -3.9738   -3.3883    5.1885 H         1 DAB         0.1630
     46 H11        -3.6761   -3.9474    7.6095 H         1 DAB         0.0281
     47 H12         1.0298   -1.5724    7.3242 H         1 DAB         0.4320
     48 H13         0.3788   -2.3181    8.7591 H         1 DAB         0.4320
     49 H14        -0.3794   -4.4965    3.5803 H         1 DAB         0.1545
     50 H15        -0.5447   -6.9577    3.5834 H         1 DAB         0.1440
     51 H16        -2.5239   -8.0783    2.6147 H         1 DAB         0.1406
     52 H17        -5.1579   -6.3258    0.7956 H         1 DAB         0.4669
     53 H18        -7.8708   -3.8548    4.1173 H         1 DAB         0.1618
     54 H19        -7.2832   -4.2613    6.4933 H         1 DAB         0.1500
     55 H20        -5.9537   -6.2611    7.1175 H         1 DAB         0.1618
@<TRIPOS>BOND
     1    1    2 1
     2    2    3 1
     3    2    4 1
     4    2    5 1
     5    5    9 1
     6    5    6 2
     7    6    7 1
     8    7    8 2
     9    8    9 1
    10    8   10 1
    11   10   15 ar
    12   10   11 ar
    13   11   12 ar
    14   12   13 ar
    15   13   14 ar
    16   14   15 ar
    17   14   16 1
    18    7   17 1
    19   17   22 ar
    20   17   18 ar
    21   18   19 ar
    22   19   20 ar
    23   20   21 ar
    24   21   22 ar
    25   22   23 1
    26   21   24 1
    27   24   25 1
    28   25   26 2
    29   25   27 2
    30   25   28 1
    31   28   33 ar
    32   28   29 ar
    33   29   30 ar
    34   30   31 ar
    35   31   32 ar
    36   32   33 ar
    37   33   34 1
    38   29   35 1
    39    1   36 1
    40    1   37 1
    41    1   38 1
    42    3   39 1
    43    3   40 1
    44    3   41 1
    45    4   42 1
    46    4   43 1
    47    4   44 1
    48   11   45 1
    49   12   46 1
    50   16   47 1
    51   16   48 1
    52   18   49 1
    53   19   50 1
    54   20   51 1
    55   24   52 1
    56   30   53 1
    57   31   54 1
    58   32   55 1
