@<TRIPOS>MOLECULE
~{N}-[3-[5-(2-aminopyrimidin-4-yl)-2-~{tert}-butyl-thiazol-4-yl]-2-fluoro-phenyl]-2,6-difluoro-benzenesulfonamide
54   57    1
SMALL
USER_CHARGES


@<TRIPOS>ATOM
      1 C1         -0.7704    1.1243    0.7246 C.3       1 DAB        -0.0874 
      2 C2         -2.0904    0.3299    0.6216 C.3       1 DAB        -0.0904 
      3 C3         -3.2789    1.2876    0.8548 C.3       1 DAB        -0.0874 
      4 C4         -2.1995   -0.1873   -0.8307 C.3       1 DAB        -0.0874 
      5 C5         -2.1077   -0.7840    1.6815 C.2       1 DAB         0.4021 
      6 N1         -2.2053   -2.0668    1.4112 N.2       1 DAB        -0.6027 
      7 C6         -2.1915   -2.7753    2.5968 C.2       1 DAB         0.4099 
      8 C7         -2.0846   -2.0224    3.7475 C.2       1 DAB        -0.2673 
      9 S1         -1.9952   -0.3589    3.3402 S.3       1 DAB        -0.0280 
     10 C8         -2.0399   -2.4085    5.1380 C.ar      1 DAB         0.5576 
     11 C9         -3.0793   -3.0998    5.7264 C.ar      1 DAB        -0.3973 
     12 C10        -2.9119   -3.4069    7.0613 C.ar      1 DAB         0.4640 
     13 N2         -1.8185   -3.0705    7.7766 N.ar      1 DAB        -0.7440 
     14 C11        -0.8750   -2.3985    7.0899 C.ar      1 DAB         0.8691 
     15 N3         -0.9190   -2.0403    5.7925 N.ar      1 DAB        -0.7565 
     16 N4          0.2847   -2.0306    7.8069 N.pl3     1 DAB        -0.9315 
     17 C12        -2.2873   -4.2090    2.5984 C.ar      1 DAB        -0.1362 
     18 C13        -1.2577   -4.9716    3.1498 C.ar      1 DAB        -0.0859 
     19 C14        -1.3462   -6.3637    3.1539 C.ar      1 DAB        -0.1275 
     20 C15        -2.4642   -6.9931    2.6065 C.ar      1 DAB        -0.1198 
     21 C16        -3.4937   -6.2304    2.0551 C.ar      1 DAB         0.1046 
     22 C17        -3.4053   -4.8383    2.0510 C.ar      1 DAB         0.1449 
     23 F1         -4.3989   -4.1093    1.5188 F         1 DAB        -0.1234 
     24 N5         -4.6360   -6.8785    1.4949 N.2       1 DAB        -0.7832 
     25 S2         -5.5977   -7.8872    2.5075 S.o2      1 DAB         1.5145 
     26 O1         -6.7853   -8.2929    1.7791 O.2       1 DAB        -0.6280 
     27 O2         -4.7656   -8.8899    3.1443 O.2       1 DAB        -0.6280 
     28 C18        -6.1261   -6.7507    3.7572 C.ar      1 DAB        -0.4289 
     29 C19        -6.8731   -5.6261    3.4063 C.ar      1 DAB         0.2564 
     30 C20        -7.2894   -4.7303    4.3911 C.ar      1 DAB        -0.2110 
     31 C21        -6.9586   -4.9589    5.7268 C.ar      1 DAB        -0.0258 
     32 C22        -6.2116   -6.0835    6.0776 C.ar      1 DAB        -0.2110 
     33 C23        -5.7953   -6.9793    5.0928 C.ar      1 DAB         0.2564 
     34 F2         -5.0783   -8.0566    5.4423 F         1 DAB        -0.1105 
     35 F3         -7.1967   -5.3955    2.1261 F         1 DAB        -0.1105 
     36 H1          0.0796    0.4460    0.5591 H         1 DAB         0.0439 
     37 H2         -0.6907    1.5748    1.7250 H         1 DAB         0.0439 
     38 H3         -0.7598    1.9180   -0.0369 H         1 DAB         0.0439 
     39 H4         -4.2220    0.7260    0.7824 H         1 DAB         0.0439 
     40 H5         -3.2652    2.0811    0.0931 H         1 DAB         0.0439 
     41 H6         -3.1961    1.7379    1.8550 H         1 DAB         0.0439 
     42 H7         -3.1307   -0.7612   -0.9465 H         1 DAB         0.0439 
     43 H8         -1.3392   -0.8351   -1.0548 H         1 DAB         0.0439 
     44 H9         -2.2062    0.6664   -1.5244 H         1 DAB         0.0439 
     45 H10        -3.9738   -3.3883    5.1885 H         1 DAB         0.1630 
     46 H11        -3.6761   -3.9474    7.6095 H         1 DAB         0.0281 
     47 H12         1.0920   -1.4799    7.3019 H         1 DAB         0.4320 
     48 H13         0.3808   -2.2948    8.8704 H         1 DAB         0.4320 
     49 H14        -0.3794   -4.4965    3.5803 H         1 DAB         0.1545 
     50 H15        -0.5447   -6.9577    3.5834 H         1 DAB         0.1440 
     51 H16        -2.5239   -8.0783    2.6147 H         1 DAB         0.1406 
     52 H18        -7.8708   -3.8548    4.1173 H         1 DAB         0.1618 
     53 H19        -7.2832   -4.2613    6.4933 H         1 DAB         0.1500 
     54 H20        -5.9537   -6.2611    7.1175 H         1 DAB         0.1618 
@<TRIPOS>BOND
     1    1    2 1    
     2    1   36 1    
     3    1   37 1    
     4    1   38 1    
     5    2    3 1    
     6    2    4 1    
     7    2    5 1    
     8    3   39 1    
     9    3   40 1    
    10    3   41 1    
    11    4   42 1    
    12    4   43 1    
    13    4   44 1    
    14    5    9 1    
    15    5    6 2    
    16    6    7 1    
    17    7    8 2    
    18    7   17 1    
    19    8    9 1    
    20    8   10 1    
    21   10   15 ar   
    22   10   11 ar   
    23   11   12 ar   
    24   11   45 1    
    25   12   13 ar   
    26   12   46 1    
    27   13   14 ar   
    28   14   15 ar   
    29   14   16 1    
    30   16   47 1    
    31   16   48 1    
    32   17   22 ar   
    33   17   18 ar   
    34   18   19 ar   
    35   18   49 1    
    36   19   20 ar   
    37   19   50 1    
    38   20   21 ar   
    39   20   51 1    
    40   21   22 ar   
    41   21   24 1    
    42   22   23 1    
    43   24   25 1    
    44   25   26 2    
    45   25   27 2    
    46   25   28 1    
    47   28   33 ar   
    48   28   29 ar   
    49   29   30 ar   
    50   29   35 1    
    51   30   31 ar   
    52   30   52 1    
    53   31   32 ar   
    54   31   53 1    
    55   32   33 ar   
    56   32   54 1    
    57   33   34 1    
@<TRIPOS>SUBSTRUCTURE
     1 DAB         1 GROUP             0       ****    0 ROOT    
@<TRIPOS>MOLECULE
~{N}-[3-[5-(2-aminopyrimidin-4-yl)-2-~{tert}-butyl-thiazol-4-yl]-2-fluoro-phenyl]-2,6-difluoro-benzenesulfonamide
55   58    1
SMALL
USER_CHARGES


@<TRIPOS>ATOM
      1 C1         -0.7704    1.1243    0.7246 C.3       1 DAB        -0.0874 
      2 C2         -2.0904    0.3299    0.6216 C.3       1 DAB        -0.0904 
      3 C3         -3.2789    1.2876    0.8548 C.3       1 DAB        -0.0874 
      4 C4         -2.1995   -0.1873   -0.8307 C.3       1 DAB        -0.0874 
      5 C5         -2.1077   -0.7840    1.6815 C.2       1 DAB         0.4021 
      6 N1         -2.2053   -2.0668    1.4112 N.2       1 DAB        -0.6027 
      7 C6         -2.1915   -2.7753    2.5968 C.2       1 DAB         0.4099 
      8 C7         -2.0846   -2.0224    3.7475 C.2       1 DAB        -0.2673 
      9 S1         -1.9952   -0.3589    3.3402 S.3       1 DAB        -0.0280 
     10 C8         -2.0399   -2.4085    5.1380 C.ar      1 DAB         0.5576 
     11 C9         -3.0793   -3.0998    5.7264 C.ar      1 DAB        -0.3973 
     12 C10        -2.9119   -3.4069    7.0613 C.ar      1 DAB         0.4640 
     13 N2         -1.8185   -3.0705    7.7766 N.ar      1 DAB        -0.7440 
     14 C11        -0.8750   -2.3985    7.0899 C.ar      1 DAB         0.8691 
     15 N3         -0.9190   -2.0403    5.7925 N.ar      1 DAB        -0.7565 
     16 N4          0.2847   -2.0306    7.8069 N.pl3     1 DAB        -0.9315 
     17 C12        -2.2873   -4.2090    2.5984 C.ar      1 DAB        -0.1362 
     18 C13        -1.2577   -4.9716    3.1498 C.ar      1 DAB        -0.0859 
     19 C14        -1.3462   -6.3637    3.1539 C.ar      1 DAB        -0.1275 
     20 C15        -2.4642   -6.9931    2.6065 C.ar      1 DAB        -0.1198 
     21 C16        -3.4937   -6.2304    2.0551 C.ar      1 DAB         0.1046 
     22 C17        -3.4053   -4.8383    2.0510 C.ar      1 DAB         0.1449 
     23 F1         -4.3989   -4.1093    1.5188 F         1 DAB        -0.1234 
     24 N5         -4.6360   -6.8785    1.4949 N.pl3     1 DAB        -0.7832 
     25 S2         -5.5977   -7.8872    2.5075 S.o2      1 DAB         1.5145 
     26 O1         -6.7853   -8.2929    1.7791 O.2       1 DAB        -0.6280 
     27 O2         -4.7656   -8.8899    3.1443 O.2       1 DAB        -0.6280 
     28 C18        -6.1261   -6.7507    3.7572 C.ar      1 DAB        -0.4289 
     29 C19        -6.8731   -5.6261    3.4063 C.ar      1 DAB         0.2564 
     30 C20        -7.2894   -4.7303    4.3911 C.ar      1 DAB        -0.2110 
     31 C21        -6.9586   -4.9589    5.7268 C.ar      1 DAB        -0.0258 
     32 C22        -6.2116   -6.0835    6.0776 C.ar      1 DAB        -0.2110 
     33 C23        -5.7953   -6.9793    5.0928 C.ar      1 DAB         0.2564 
     34 F2         -5.0783   -8.0566    5.4423 F         1 DAB        -0.1105 
     35 F3         -7.1967   -5.3955    2.1261 F         1 DAB        -0.1105 
     36 H1          0.0796    0.4460    0.5591 H         1 DAB         0.0439 
     37 H2         -0.6907    1.5748    1.7250 H         1 DAB         0.0439 
     38 H3         -0.7598    1.9180   -0.0369 H         1 DAB         0.0439 
     39 H4         -4.2220    0.7260    0.7824 H         1 DAB         0.0439 
     40 H5         -3.2652    2.0811    0.0931 H         1 DAB         0.0439 
     41 H6         -3.1961    1.7379    1.8550 H         1 DAB         0.0439 
     42 H7         -3.1307   -0.7612   -0.9465 H         1 DAB         0.0439 
     43 H8         -1.3392   -0.8351   -1.0548 H         1 DAB         0.0439 
     44 H9         -2.2062    0.6664   -1.5244 H         1 DAB         0.0439 
     45 H10        -3.9738   -3.3883    5.1885 H         1 DAB         0.1630 
     46 H11        -3.6761   -3.9474    7.6095 H         1 DAB         0.0281 
     47 H12         1.0920   -1.4799    7.3019 H         1 DAB         0.4320 
     48 H13         0.3808   -2.2948    8.8704 H         1 DAB         0.4320 
     49 H14        -0.3794   -4.4965    3.5803 H         1 DAB         0.1545 
     50 H15        -0.5447   -6.9577    3.5834 H         1 DAB         0.1440 
     51 H16        -2.5239   -8.0783    2.6147 H         1 DAB         0.1406 
     52 H17        -4.9063   -6.7432    0.4372 H         1 DAB         0.4669 
     53 H18        -7.8708   -3.8548    4.1173 H         1 DAB         0.1618 
     54 H19        -7.2832   -4.2613    6.4933 H         1 DAB         0.1500 
     55 H20        -5.9537   -6.2611    7.1175 H         1 DAB         0.1618 
@<TRIPOS>BOND
     1    1    2 1    
     2    1   36 1    
     3    1   37 1    
     4    1   38 1    
     5    2    3 1    
     6    2    4 1    
     7    2    5 1    
     8    3   39 1    
     9    3   40 1    
    10    3   41 1    
    11    4   42 1    
    12    4   43 1    
    13    4   44 1    
    14    5    9 1    
    15    5    6 2    
    16    6    7 1    
    17    7    8 2    
    18    7   17 1    
    19    8    9 1    
    20    8   10 1    
    21   10   15 ar   
    22   10   11 ar   
    23   11   12 ar   
    24   11   45 1    
    25   12   13 ar   
    26   12   46 1    
    27   13   14 ar   
    28   14   15 ar   
    29   14   16 1    
    30   16   47 1    
    31   16   48 1    
    32   17   22 ar   
    33   17   18 ar   
    34   18   19 ar   
    35   18   49 1    
    36   19   20 ar   
    37   19   50 1    
    38   20   21 ar   
    39   20   51 1    
    40   21   22 ar   
    41   21   24 1    
    42   22   23 1    
    43   24   25 1    
    44   24   52 1    
    45   25   26 2    
    46   25   27 2    
    47   25   28 1    
    48   28   33 ar   
    49   28   29 ar   
    50   29   30 ar   
    51   29   35 1    
    52   30   31 ar   
    53   30   53 1    
    54   31   32 ar   
    55   31   54 1    
    56   32   33 ar   
    57   32   55 1    
    58   33   34 1    
@<TRIPOS>SUBSTRUCTURE
     1 DAB         1 GROUP             0       ****    0 ROOT    
