@<TRIPOS>MOLECULE
~{N}-[3-[5-(2-aminopyrimidin-4-yl)-2-~{tert}-butyl-thiazol-4-yl]-2-fluoro-phenyl]-2,6-difluoro-benzenesulfonamide
54   57    1
SMALL
USER_CHARGES


@<TRIPOS>ATOM
      1 C1         -0.7704    1.1243    0.7246 C.3       1 DAB        -0.0872 
      2 C2         -2.0904    0.3299    0.6216 C.3       1 DAB        -0.0917 
      3 C3         -3.2789    1.2876    0.8548 C.3       1 DAB        -0.0872 
      4 C4         -2.1995   -0.1873   -0.8307 C.3       1 DAB        -0.0872 
      5 C5         -2.1077   -0.7840    1.6815 C.2       1 DAB         0.3996 
      6 N1         -2.2053   -2.0668    1.4112 N.2       1 DAB        -0.5994 
      7 C6         -2.1915   -2.7753    2.5968 C.2       1 DAB         0.4081 
      8 C7         -2.0846   -2.0224    3.7475 C.2       1 DAB        -0.2686 
      9 S1         -1.9952   -0.3589    3.3402 S.3       1 DAB        -0.0239 
     10 C8         -2.0399   -2.4085    5.1380 C.ar      1 DAB         0.5581 
     11 C9         -3.0793   -3.0998    5.7264 C.ar      1 DAB        -0.3960 
     12 C10        -2.9119   -3.4069    7.0613 C.ar      1 DAB         0.4636 
     13 N2         -1.8185   -3.0705    7.7766 N.ar      1 DAB        -0.7434 
     14 C11        -0.8750   -2.3985    7.0899 C.ar      1 DAB         0.8692 
     15 N3         -0.9190   -2.0403    5.7925 N.ar      1 DAB        -0.7565 
     16 N4          0.2847   -2.0306    7.8069 N.pl3     1 DAB        -0.9317 
     17 C12        -2.2873   -4.2090    2.5984 C.ar      1 DAB        -0.1345 
     18 C13        -1.2577   -4.9716    3.1498 C.ar      1 DAB        -0.0873 
     19 C14        -1.3462   -6.3637    3.1539 C.ar      1 DAB        -0.1257 
     20 C15        -2.4642   -6.9931    2.6065 C.ar      1 DAB        -0.1195 
     21 C16        -3.4937   -6.2304    2.0551 C.ar      1 DAB         0.1038 
     22 C17        -3.4053   -4.8383    2.0510 C.ar      1 DAB         0.1410 
     23 F1         -4.3989   -4.1093    1.5188 F         1 DAB        -0.1248 
     24 N5         -4.6360   -6.8785    1.4949 N.2       1 DAB        -0.7822 
     25 S2         -5.5977   -7.8873    2.5075 S.o2      1 DAB         1.5124 
     26 O1         -6.7853   -8.2929    1.7791 O.2       1 DAB        -0.6285 
     27 O2         -4.7656   -8.8899    3.1443 O.2       1 DAB        -0.6285 
     28 C18        -6.1261   -6.7507    3.7572 C.ar      1 DAB        -0.4285 
     29 C19        -6.8731   -5.6261    3.4063 C.ar      1 DAB         0.2577 
     30 C20        -7.2894   -4.7303    4.3911 C.ar      1 DAB        -0.2123 
     31 C21        -6.9586   -4.9589    5.7268 C.ar      1 DAB        -0.0246 
     32 C22        -6.2116   -6.0835    6.0776 C.ar      1 DAB        -0.2123 
     33 C23        -5.7953   -6.9793    5.0928 C.ar      1 DAB         0.2577 
     34 F2         -5.0783   -8.0566    5.4423 F         1 DAB        -0.1099 
     35 F3         -7.1967   -5.3955    2.1261 F         1 DAB        -0.1099 
     36 H1          0.0796    0.4460    0.5591 H         1 DAB         0.0439 
     37 H2         -0.6907    1.5748    1.7250 H         1 DAB         0.0439 
     38 H3         -0.7598    1.9180   -0.0369 H         1 DAB         0.0439 
     39 H4         -4.2220    0.7260    0.7824 H         1 DAB         0.0439 
     40 H5         -3.2652    2.0811    0.0931 H         1 DAB         0.0439 
     41 H6         -3.1961    1.7379    1.8550 H         1 DAB         0.0439 
     42 H7         -3.1307   -0.7612   -0.9465 H         1 DAB         0.0439 
     43 H8         -1.3392   -0.8351   -1.0548 H         1 DAB         0.0439 
     44 H9         -2.2062    0.6664   -1.5244 H         1 DAB         0.0439 
     45 H10        -3.9738   -3.3883    5.1885 H         1 DAB         0.1630 
     46 H11        -3.6761   -3.9474    7.6095 H         1 DAB         0.0284 
     47 H12         1.0920   -1.4799    7.3019 H         1 DAB         0.4311 
     48 H13         0.3808   -2.2948    8.8704 H         1 DAB         0.4311 
     49 H14        -0.3794   -4.4965    3.5803 H         1 DAB         0.1544 
     50 H15        -0.5447   -6.9577    3.5834 H         1 DAB         0.1443 
     51 H16        -2.5239   -8.0783    2.6147 H         1 DAB         0.1406 
     52 H18        -7.8708   -3.8548    4.1173 H         1 DAB         0.1620 
     53 H19        -7.2832   -4.2613    6.4933 H         1 DAB         0.1498 
     54 H20        -5.9537   -6.2611    7.1175 H         1 DAB         0.1620 
@<TRIPOS>BOND
     1    1    2 1    
     2    1   36 1    
     3    1   37 1    
     4    1   38 1    
     5    2    3 1    
     6    2    4 1    
     7    2    5 1    
     8    3   39 1    
     9    3   40 1    
    10    3   41 1    
    11    4   42 1    
    12    4   43 1    
    13    4   44 1    
    14    5    9 1    
    15    5    6 2    
    16    6    7 1    
    17    7    8 2    
    18    7   17 1    
    19    8    9 1    
    20    8   10 1    
    21   10   15 ar   
    22   10   11 ar   
    23   11   12 ar   
    24   11   45 1    
    25   12   13 ar   
    26   12   46 1    
    27   13   14 ar   
    28   14   15 ar   
    29   14   16 1    
    30   16   47 1    
    31   16   48 1    
    32   17   22 ar   
    33   17   18 ar   
    34   18   19 ar   
    35   18   49 1    
    36   19   20 ar   
    37   19   50 1    
    38   20   21 ar   
    39   20   51 1    
    40   21   22 ar   
    41   21   24 1    
    42   22   23 1    
    43   24   25 1    
    44   25   26 2    
    45   25   27 2    
    46   25   28 1    
    47   28   33 ar   
    48   28   29 ar   
    49   29   30 ar   
    50   29   35 1    
    51   30   31 ar   
    52   30   52 1    
    53   31   32 ar   
    54   31   53 1    
    55   32   33 ar   
    56   32   54 1    
    57   33   34 1    
@<TRIPOS>SUBSTRUCTURE
     1 DAB         1 GROUP             0       ****    0 ROOT    
@<TRIPOS>MOLECULE
~{N}-[3-[5-(2-aminopyrimidin-4-yl)-2-~{tert}-butyl-thiazol-4-yl]-2-fluoro-phenyl]-2,6-difluoro-benzenesulfonamide
55   58    1
SMALL
USER_CHARGES


@<TRIPOS>ATOM
      1 C1         -0.7704    1.1243    0.7246 C.3       1 DAB        -0.0872 
      2 C2         -2.0904    0.3299    0.6216 C.3       1 DAB        -0.0917 
      3 C3         -3.2789    1.2876    0.8548 C.3       1 DAB        -0.0872 
      4 C4         -2.1995   -0.1873   -0.8307 C.3       1 DAB        -0.0872 
      5 C5         -2.1077   -0.7840    1.6815 C.2       1 DAB         0.3996 
      6 N1         -2.2053   -2.0668    1.4112 N.2       1 DAB        -0.5994 
      7 C6         -2.1915   -2.7753    2.5968 C.2       1 DAB         0.4081 
      8 C7         -2.0846   -2.0224    3.7475 C.2       1 DAB        -0.2686 
      9 S1         -1.9952   -0.3589    3.3402 S.3       1 DAB        -0.0239 
     10 C8         -2.0399   -2.4085    5.1380 C.ar      1 DAB         0.5581 
     11 C9         -3.0793   -3.0998    5.7264 C.ar      1 DAB        -0.3960 
     12 C10        -2.9119   -3.4069    7.0613 C.ar      1 DAB         0.4636 
     13 N2         -1.8185   -3.0705    7.7766 N.ar      1 DAB        -0.7434 
     14 C11        -0.8750   -2.3985    7.0899 C.ar      1 DAB         0.8692 
     15 N3         -0.9190   -2.0403    5.7925 N.ar      1 DAB        -0.7565 
     16 N4          0.2847   -2.0306    7.8069 N.pl3     1 DAB        -0.9317 
     17 C12        -2.2873   -4.2090    2.5984 C.ar      1 DAB        -0.1345 
     18 C13        -1.2577   -4.9716    3.1498 C.ar      1 DAB        -0.0873 
     19 C14        -1.3462   -6.3637    3.1539 C.ar      1 DAB        -0.1257 
     20 C15        -2.4642   -6.9931    2.6065 C.ar      1 DAB        -0.1195 
     21 C16        -3.4937   -6.2304    2.0551 C.ar      1 DAB         0.1038 
     22 C17        -3.4053   -4.8383    2.0510 C.ar      1 DAB         0.1410 
     23 F1         -4.3989   -4.1093    1.5188 F         1 DAB        -0.1248 
     24 N5         -4.6360   -6.8785    1.4949 N.pl3     1 DAB        -0.7822 
     25 S2         -5.5977   -7.8873    2.5075 S.o2      1 DAB         1.5124 
     26 O1         -6.7853   -8.2929    1.7791 O.2       1 DAB        -0.6285 
     27 O2         -4.7656   -8.8899    3.1443 O.2       1 DAB        -0.6285 
     28 C18        -6.1261   -6.7507    3.7572 C.ar      1 DAB        -0.4285 
     29 C19        -6.8731   -5.6261    3.4063 C.ar      1 DAB         0.2577 
     30 C20        -7.2894   -4.7303    4.3911 C.ar      1 DAB        -0.2123 
     31 C21        -6.9586   -4.9589    5.7268 C.ar      1 DAB        -0.0246 
     32 C22        -6.2116   -6.0835    6.0776 C.ar      1 DAB        -0.2123 
     33 C23        -5.7953   -6.9793    5.0928 C.ar      1 DAB         0.2577 
     34 F2         -5.0783   -8.0566    5.4423 F         1 DAB        -0.1099 
     35 F3         -7.1967   -5.3955    2.1261 F         1 DAB        -0.1099 
     36 H1          0.0796    0.4460    0.5591 H         1 DAB         0.0439 
     37 H2         -0.6907    1.5748    1.7250 H         1 DAB         0.0439 
     38 H3         -0.7598    1.9180   -0.0369 H         1 DAB         0.0439 
     39 H4         -4.2220    0.7260    0.7824 H         1 DAB         0.0439 
     40 H5         -3.2652    2.0811    0.0931 H         1 DAB         0.0439 
     41 H6         -3.1961    1.7379    1.8550 H         1 DAB         0.0439 
     42 H7         -3.1307   -0.7612   -0.9465 H         1 DAB         0.0439 
     43 H8         -1.3392   -0.8351   -1.0548 H         1 DAB         0.0439 
     44 H9         -2.2062    0.6664   -1.5244 H         1 DAB         0.0439 
     45 H10        -3.9738   -3.3883    5.1885 H         1 DAB         0.1630 
     46 H11        -3.6761   -3.9474    7.6095 H         1 DAB         0.0284 
     47 H12         1.0920   -1.4799    7.3019 H         1 DAB         0.4311 
     48 H13         0.3808   -2.2948    8.8704 H         1 DAB         0.4311 
     49 H14        -0.3794   -4.4965    3.5803 H         1 DAB         0.1544 
     50 H15        -0.5447   -6.9577    3.5834 H         1 DAB         0.1443 
     51 H16        -2.5239   -8.0783    2.6147 H         1 DAB         0.1406 
     52 H17        -4.9063   -6.7432    0.4373 H         1 DAB         0.4686 
     53 H18        -7.8708   -3.8548    4.1173 H         1 DAB         0.1620 
     54 H19        -7.2832   -4.2613    6.4933 H         1 DAB         0.1498 
     55 H20        -5.9537   -6.2611    7.1175 H         1 DAB         0.1620 
@<TRIPOS>BOND
     1    1    2 1    
     2    1   36 1    
     3    1   37 1    
     4    1   38 1    
     5    2    3 1    
     6    2    4 1    
     7    2    5 1    
     8    3   39 1    
     9    3   40 1    
    10    3   41 1    
    11    4   42 1    
    12    4   43 1    
    13    4   44 1    
    14    5    9 1    
    15    5    6 2    
    16    6    7 1    
    17    7    8 2    
    18    7   17 1    
    19    8    9 1    
    20    8   10 1    
    21   10   15 ar   
    22   10   11 ar   
    23   11   12 ar   
    24   11   45 1    
    25   12   13 ar   
    26   12   46 1    
    27   13   14 ar   
    28   14   15 ar   
    29   14   16 1    
    30   16   47 1    
    31   16   48 1    
    32   17   22 ar   
    33   17   18 ar   
    34   18   19 ar   
    35   18   49 1    
    36   19   20 ar   
    37   19   50 1    
    38   20   21 ar   
    39   20   51 1    
    40   21   22 ar   
    41   21   24 1    
    42   22   23 1    
    43   24   25 1    
    44   24   52 1    
    45   25   26 2    
    46   25   27 2    
    47   25   28 1    
    48   28   33 ar   
    49   28   29 ar   
    50   29   30 ar   
    51   29   35 1    
    52   30   31 ar   
    53   30   53 1    
    54   31   32 ar   
    55   31   54 1    
    56   32   33 ar   
    57   32   55 1    
    58   33   34 1    
@<TRIPOS>SUBSTRUCTURE
     1 DAB         1 GROUP             0       ****    0 ROOT    
@<TRIPOS>MOLECULE
~{N}-[3-[5-(2-aminopyrimidin-4-yl)-2-~{tert}-butyl-thiazol-4-yl]-2-fluoro-phenyl]-2,6-difluoro-benzenesulfonamide
53   56    1
SMALL
USER_CHARGES


@<TRIPOS>ATOM
      1 C1         -0.7704    1.1243    0.7246 C.3       1 DAB        -0.0872 
      2 C2         -2.0904    0.3299    0.6216 C.3       1 DAB        -0.0917 
      3 C3         -3.2789    1.2876    0.8548 C.3       1 DAB        -0.0872 
      4 C4         -2.1995   -0.1873   -0.8307 C.3       1 DAB        -0.0872 
      5 C5         -2.1077   -0.7840    1.6815 C.2       1 DAB         0.3996 
      6 N1         -2.2053   -2.0668    1.4112 N.2       1 DAB        -0.5994 
      7 C6         -2.1915   -2.7753    2.5968 C.2       1 DAB         0.4081 
      8 C7         -2.0846   -2.0224    3.7475 C.2       1 DAB        -0.2686 
      9 S1         -1.9952   -0.3589    3.3402 S.3       1 DAB        -0.0239 
     10 C8         -2.0399   -2.4085    5.1380 C.ar      1 DAB         0.5581 
     11 C9         -3.0793   -3.0998    5.7264 C.ar      1 DAB        -0.3960 
     12 C10        -2.9119   -3.4069    7.0613 C.ar      1 DAB         0.4636 
     13 N2         -1.8185   -3.0705    7.7766 N.ar      1 DAB        -0.7434 
     14 C11        -0.8750   -2.3985    7.0899 C.ar      1 DAB         0.8692 
     15 N3         -0.9190   -2.0403    5.7925 N.ar      1 DAB        -0.7565 
     16 N4          0.2847   -2.0306    7.8069 N.2       1 DAB        -0.9317 
     17 C12        -2.2873   -4.2090    2.5984 C.ar      1 DAB        -0.1345 
     18 C13        -1.2577   -4.9716    3.1498 C.ar      1 DAB        -0.0873 
     19 C14        -1.3462   -6.3637    3.1539 C.ar      1 DAB        -0.1257 
     20 C15        -2.4642   -6.9931    2.6065 C.ar      1 DAB        -0.1195 
     21 C16        -3.4937   -6.2304    2.0551 C.ar      1 DAB         0.1038 
     22 C17        -3.4053   -4.8383    2.0510 C.ar      1 DAB         0.1410 
     23 F1         -4.3989   -4.1093    1.5188 F         1 DAB        -0.1248 
     24 N5         -4.6360   -6.8785    1.4949 N.2       1 DAB        -0.7822 
     25 S2         -5.5977   -7.8873    2.5075 S.o2      1 DAB         1.5124 
     26 O1         -6.7853   -8.2929    1.7791 O.2       1 DAB        -0.6285 
     27 O2         -4.7656   -8.8899    3.1443 O.2       1 DAB        -0.6285 
     28 C18        -6.1261   -6.7507    3.7572 C.ar      1 DAB        -0.4285 
     29 C19        -6.8731   -5.6261    3.4063 C.ar      1 DAB         0.2577 
     30 C20        -7.2894   -4.7303    4.3911 C.ar      1 DAB        -0.2123 
     31 C21        -6.9586   -4.9589    5.7268 C.ar      1 DAB        -0.0246 
     32 C22        -6.2116   -6.0835    6.0776 C.ar      1 DAB        -0.2123 
     33 C23        -5.7953   -6.9793    5.0928 C.ar      1 DAB         0.2577 
     34 F2         -5.0783   -8.0566    5.4423 F         1 DAB        -0.1099 
     35 F3         -7.1967   -5.3955    2.1261 F         1 DAB        -0.1099 
     36 H1          0.0796    0.4460    0.5591 H         1 DAB         0.0439 
     37 H2         -0.6907    1.5748    1.7250 H         1 DAB         0.0439 
     38 H3         -0.7598    1.9180   -0.0369 H         1 DAB         0.0439 
     39 H4         -4.2220    0.7260    0.7824 H         1 DAB         0.0439 
     40 H5         -3.2652    2.0811    0.0931 H         1 DAB         0.0439 
     41 H6         -3.1961    1.7379    1.8550 H         1 DAB         0.0439 
     42 H7         -3.1307   -0.7612   -0.9465 H         1 DAB         0.0439 
     43 H8         -1.3392   -0.8351   -1.0548 H         1 DAB         0.0439 
     44 H9         -2.2062    0.6664   -1.5244 H         1 DAB         0.0439 
     45 H10        -3.9738   -3.3883    5.1885 H         1 DAB         0.1630 
     46 H11        -3.6761   -3.9474    7.6095 H         1 DAB         0.0284 
     47 H13         1.0920   -1.4799    7.3019 H         1 DAB         0.4311 
     48 H14        -0.3794   -4.4965    3.5803 H         1 DAB         0.1544 
     49 H15        -0.5447   -6.9577    3.5834 H         1 DAB         0.1443 
     50 H16        -2.5239   -8.0783    2.6147 H         1 DAB         0.1406 
     51 H18        -7.8708   -3.8548    4.1173 H         1 DAB         0.1620 
     52 H19        -7.2832   -4.2613    6.4933 H         1 DAB         0.1498 
     53 H20        -5.9537   -6.2611    7.1175 H         1 DAB         0.1620 
@<TRIPOS>BOND
     1    1    2 1    
     2    1   36 1    
     3    1   37 1    
     4    1   38 1    
     5    2    3 1    
     6    2    4 1    
     7    2    5 1    
     8    3   39 1    
     9    3   40 1    
    10    3   41 1    
    11    4   42 1    
    12    4   43 1    
    13    4   44 1    
    14    5    9 1    
    15    5    6 2    
    16    6    7 1    
    17    7    8 2    
    18    7   17 1    
    19    8    9 1    
    20    8   10 1    
    21   10   15 ar   
    22   10   11 ar   
    23   11   12 ar   
    24   11   45 1    
    25   12   13 ar   
    26   12   46 1    
    27   13   14 ar   
    28   14   15 ar   
    29   14   16 1    
    30   16   47 1    
    31   17   22 ar   
    32   17   18 ar   
    33   18   19 ar   
    34   18   48 1    
    35   19   20 ar   
    36   19   49 1    
    37   20   21 ar   
    38   20   50 1    
    39   21   22 ar   
    40   21   24 1    
    41   22   23 1    
    42   24   25 1    
    43   25   26 2    
    44   25   27 2    
    45   25   28 1    
    46   28   33 ar   
    47   28   29 ar   
    48   29   30 ar   
    49   29   35 1    
    50   30   31 ar   
    51   30   51 1    
    52   31   32 ar   
    53   31   52 1    
    54   32   33 ar   
    55   32   53 1    
    56   33   34 1    
@<TRIPOS>SUBSTRUCTURE
     1 DAB         1 GROUP             0       ****    0 ROOT    
@<TRIPOS>MOLECULE
~{N}-[3-[5-(2-aminopyrimidin-4-yl)-2-~{tert}-butyl-thiazol-4-yl]-2-fluoro-phenyl]-2,6-difluoro-benzenesulfonamide
54   57    1
SMALL
USER_CHARGES


@<TRIPOS>ATOM
      1 C1         -0.7704    1.1243    0.7246 C.3       1 DAB        -0.0872 
      2 C2         -2.0904    0.3299    0.6216 C.3       1 DAB        -0.0917 
      3 C3         -3.2789    1.2876    0.8548 C.3       1 DAB        -0.0872 
      4 C4         -2.1995   -0.1873   -0.8307 C.3       1 DAB        -0.0872 
      5 C5         -2.1077   -0.7840    1.6815 C.2       1 DAB         0.3996 
      6 N1         -2.2053   -2.0668    1.4112 N.2       1 DAB        -0.5994 
      7 C6         -2.1915   -2.7753    2.5968 C.2       1 DAB         0.4081 
      8 C7         -2.0846   -2.0224    3.7475 C.2       1 DAB        -0.2686 
      9 S1         -1.9952   -0.3589    3.3402 S.3       1 DAB        -0.0239 
     10 C8         -2.0399   -2.4085    5.1380 C.ar      1 DAB         0.5581 
     11 C9         -3.0793   -3.0998    5.7264 C.ar      1 DAB        -0.3960 
     12 C10        -2.9119   -3.4069    7.0613 C.ar      1 DAB         0.4636 
     13 N2         -1.8185   -3.0705    7.7766 N.ar      1 DAB        -0.7434 
     14 C11        -0.8750   -2.3985    7.0899 C.ar      1 DAB         0.8692 
     15 N3         -0.9190   -2.0403    5.7925 N.ar      1 DAB        -0.7565 
     16 N4          0.2847   -2.0306    7.8069 N.2       1 DAB        -0.9317 
     17 C12        -2.2873   -4.2090    2.5984 C.ar      1 DAB        -0.1345 
     18 C13        -1.2577   -4.9716    3.1498 C.ar      1 DAB        -0.0873 
     19 C14        -1.3462   -6.3637    3.1539 C.ar      1 DAB        -0.1257 
     20 C15        -2.4642   -6.9931    2.6065 C.ar      1 DAB        -0.1195 
     21 C16        -3.4937   -6.2304    2.0551 C.ar      1 DAB         0.1038 
     22 C17        -3.4053   -4.8383    2.0510 C.ar      1 DAB         0.1410 
     23 F1         -4.3989   -4.1093    1.5188 F         1 DAB        -0.1248 
     24 N5         -4.6360   -6.8785    1.4949 N.pl3     1 DAB        -0.7822 
     25 S2         -5.5977   -7.8873    2.5075 S.o2      1 DAB         1.5124 
     26 O1         -6.7853   -8.2929    1.7791 O.2       1 DAB        -0.6285 
     27 O2         -4.7656   -8.8899    3.1443 O.2       1 DAB        -0.6285 
     28 C18        -6.1261   -6.7507    3.7572 C.ar      1 DAB        -0.4285 
     29 C19        -6.8731   -5.6261    3.4063 C.ar      1 DAB         0.2577 
     30 C20        -7.2894   -4.7303    4.3911 C.ar      1 DAB        -0.2123 
     31 C21        -6.9586   -4.9589    5.7268 C.ar      1 DAB        -0.0246 
     32 C22        -6.2116   -6.0835    6.0776 C.ar      1 DAB        -0.2123 
     33 C23        -5.7953   -6.9793    5.0928 C.ar      1 DAB         0.2577 
     34 F2         -5.0783   -8.0566    5.4423 F         1 DAB        -0.1099 
     35 F3         -7.1967   -5.3955    2.1261 F         1 DAB        -0.1099 
     36 H1          0.0796    0.4460    0.5591 H         1 DAB         0.0439 
     37 H2         -0.6907    1.5748    1.7250 H         1 DAB         0.0439 
     38 H3         -0.7598    1.9180   -0.0369 H         1 DAB         0.0439 
     39 H4         -4.2220    0.7260    0.7824 H         1 DAB         0.0439 
     40 H5         -3.2652    2.0811    0.0931 H         1 DAB         0.0439 
     41 H6         -3.1961    1.7379    1.8550 H         1 DAB         0.0439 
     42 H7         -3.1307   -0.7612   -0.9465 H         1 DAB         0.0439 
     43 H8         -1.3392   -0.8351   -1.0548 H         1 DAB         0.0439 
     44 H9         -2.2062    0.6664   -1.5244 H         1 DAB         0.0439 
     45 H10        -3.9738   -3.3883    5.1885 H         1 DAB         0.1630 
     46 H11        -3.6761   -3.9474    7.6095 H         1 DAB         0.0284 
     47 H13         1.0920   -1.4799    7.3019 H         1 DAB         0.4311 
     48 H14        -0.3794   -4.4965    3.5803 H         1 DAB         0.1544 
     49 H15        -0.5447   -6.9577    3.5834 H         1 DAB         0.1443 
     50 H16        -2.5239   -8.0783    2.6147 H         1 DAB         0.1406 
     51 H17        -4.9063   -6.7432    0.4373 H         1 DAB         0.4686 
     52 H18        -7.8708   -3.8548    4.1173 H         1 DAB         0.1620 
     53 H19        -7.2832   -4.2613    6.4933 H         1 DAB         0.1498 
     54 H20        -5.9537   -6.2611    7.1175 H         1 DAB         0.1620 
@<TRIPOS>BOND
     1    1    2 1    
     2    1   36 1    
     3    1   37 1    
     4    1   38 1    
     5    2    3 1    
     6    2    4 1    
     7    2    5 1    
     8    3   39 1    
     9    3   40 1    
    10    3   41 1    
    11    4   42 1    
    12    4   43 1    
    13    4   44 1    
    14    5    9 1    
    15    5    6 2    
    16    6    7 1    
    17    7    8 2    
    18    7   17 1    
    19    8    9 1    
    20    8   10 1    
    21   10   15 ar   
    22   10   11 ar   
    23   11   12 ar   
    24   11   45 1    
    25   12   13 ar   
    26   12   46 1    
    27   13   14 ar   
    28   14   15 ar   
    29   14   16 1    
    30   16   47 1    
    31   17   22 ar   
    32   17   18 ar   
    33   18   19 ar   
    34   18   48 1    
    35   19   20 ar   
    36   19   49 1    
    37   20   21 ar   
    38   20   50 1    
    39   21   22 ar   
    40   21   24 1    
    41   22   23 1    
    42   24   25 1    
    43   24   51 1    
    44   25   26 2    
    45   25   27 2    
    46   25   28 1    
    47   28   33 ar   
    48   28   29 ar   
    49   29   30 ar   
    50   29   35 1    
    51   30   31 ar   
    52   30   52 1    
    53   31   32 ar   
    54   31   53 1    
    55   32   33 ar   
    56   32   54 1    
    57   33   34 1    
@<TRIPOS>SUBSTRUCTURE
     1 DAB         1 GROUP             0       ****    0 ROOT    
@<TRIPOS>MOLECULE
~{N}-[3-[5-(2-aminopyrimidin-4-yl)-2-~{tert}-butyl-thiazol-4-yl]-2-fluoro-phenyl]-2,6-difluoro-benzenesulfonamide
55   58    1
SMALL
USER_CHARGES


@<TRIPOS>ATOM
      1 C1         -0.7704    1.1243    0.7246 C.3       1 DAB        -0.0872 
      2 C2         -2.0904    0.3299    0.6216 C.3       1 DAB        -0.0917 
      3 C3         -3.2789    1.2876    0.8548 C.3       1 DAB        -0.0872 
      4 C4         -2.1995   -0.1873   -0.8307 C.3       1 DAB        -0.0872 
      5 C5         -2.1077   -0.7840    1.6815 C.cat     1 DAB         0.3996 
      6 N1         -2.2053   -2.0668    1.4112 N.pl3     1 DAB        -0.5994 
      7 C6         -2.1915   -2.7753    2.5968 C.cat     1 DAB         0.4081 
      8 C7         -2.0846   -2.0224    3.7475 C.2       1 DAB        -0.2686 
      9 S1         -1.9952   -0.3589    3.3402 S.3       1 DAB        -0.0239 
     10 C8         -2.0399   -2.4085    5.1380 C.ar      1 DAB         0.5581 
     11 C9         -3.0793   -3.0998    5.7264 C.ar      1 DAB        -0.3960 
     12 C10        -2.9119   -3.4069    7.0613 C.ar      1 DAB         0.4636 
     13 N2         -1.8185   -3.0705    7.7766 N.ar      1 DAB        -0.7434 
     14 C11        -0.8750   -2.3985    7.0899 C.ar      1 DAB         0.8692 
     15 N3         -0.9190   -2.0403    5.7925 N.ar      1 DAB        -0.7565 
     16 N4          0.2847   -2.0306    7.8069 N.pl3     1 DAB        -0.9317 
     17 C12        -2.2873   -4.2090    2.5984 C.ar      1 DAB        -0.1345 
     18 C13        -1.2577   -4.9716    3.1498 C.ar      1 DAB        -0.0873 
     19 C14        -1.3462   -6.3637    3.1539 C.ar      1 DAB        -0.1257 
     20 C15        -2.4642   -6.9931    2.6065 C.ar      1 DAB        -0.1195 
     21 C16        -3.4937   -6.2304    2.0551 C.ar      1 DAB         0.1038 
     22 C17        -3.4053   -4.8383    2.0510 C.ar      1 DAB         0.1410 
     23 F1         -4.3989   -4.1093    1.5188 F         1 DAB        -0.1248 
     24 N5         -4.6360   -6.8785    1.4949 N.2       1 DAB        -0.7822 
     25 S2         -5.5977   -7.8873    2.5075 S.o2      1 DAB         1.5124 
     26 O1         -6.7853   -8.2929    1.7791 O.2       1 DAB        -0.6285 
     27 O2         -4.7656   -8.8899    3.1443 O.2       1 DAB        -0.6285 
     28 C18        -6.1261   -6.7507    3.7572 C.ar      1 DAB        -0.4285 
     29 C19        -6.8731   -5.6261    3.4063 C.ar      1 DAB         0.2577 
     30 C20        -7.2894   -4.7303    4.3911 C.ar      1 DAB        -0.2123 
     31 C21        -6.9586   -4.9589    5.7268 C.ar      1 DAB        -0.0246 
     32 C22        -6.2116   -6.0835    6.0776 C.ar      1 DAB        -0.2123 
     33 C23        -5.7953   -6.9793    5.0928 C.ar      1 DAB         0.2577 
     34 F2         -5.0783   -8.0566    5.4423 F         1 DAB        -0.1099 
     35 F3         -7.1967   -5.3955    2.1261 F         1 DAB        -0.1099 
     36 H1          0.0796    0.4460    0.5591 H         1 DAB         0.0439 
     37 H2         -0.6907    1.5748    1.7250 H         1 DAB         0.0439 
     38 H3         -0.7598    1.9180   -0.0369 H         1 DAB         0.0439 
     39 H4         -4.2220    0.7260    0.7824 H         1 DAB         0.0439 
     40 H5         -3.2652    2.0811    0.0931 H         1 DAB         0.0439 
     41 H6         -3.1961    1.7379    1.8550 H         1 DAB         0.0439 
     42 H7         -3.1307   -0.7612   -0.9465 H         1 DAB         0.0439 
     43 H8         -1.3392   -0.8351   -1.0548 H         1 DAB         0.0439 
     44 H9         -2.2062    0.6664   -1.5244 H         1 DAB         0.0439 
     45 H10        -3.9738   -3.3883    5.1885 H         1 DAB         0.1630 
     46 H11        -3.6761   -3.9474    7.6095 H         1 DAB         0.0284 
     47 H12         1.0920   -1.4799    7.3019 H         1 DAB         0.4311 
     48 H13         0.3808   -2.2948    8.8704 H         1 DAB         0.4311 
     49 H14        -0.3794   -4.4965    3.5803 H         1 DAB         0.1544 
     50 H15        -0.5447   -6.9577    3.5834 H         1 DAB         0.1443 
     51 H16        -2.5239   -8.0783    2.6147 H         1 DAB         0.1406 
     52 H18        -7.8708   -3.8548    4.1173 H         1 DAB         0.1620 
     53 H19        -7.2832   -4.2613    6.4933 H         1 DAB         0.1498 
     54 H20        -5.9537   -6.2611    7.1175 H         1 DAB         0.1620 
     55 H55        -2.2804   -2.4047    0.3671 H         1 DAB         0.0000 
@<TRIPOS>BOND
     1    1    2 1    
     2    1   36 1    
     3    1   37 1    
     4    1   38 1    
     5    2    3 1    
     6    2    4 1    
     7    2    5 1    
     8    3   39 1    
     9    3   40 1    
    10    3   41 1    
    11    4   42 1    
    12    4   43 1    
    13    4   44 1    
    14    5    9 1    
    15    5    6 ar   
    16    6    7 ar   
    17    6   55 1    
    18    7    8 2    
    19    7   17 1    
    20    8    9 1    
    21    8   10 1    
    22   10   15 ar   
    23   10   11 ar   
    24   11   12 ar   
    25   11   45 1    
    26   12   13 ar   
    27   12   46 1    
    28   13   14 ar   
    29   14   15 ar   
    30   14   16 1    
    31   16   47 1    
    32   16   48 1    
    33   17   22 ar   
    34   17   18 ar   
    35   18   19 ar   
    36   18   49 1    
    37   19   20 ar   
    38   19   50 1    
    39   20   21 ar   
    40   20   51 1    
    41   21   22 ar   
    42   21   24 1    
    43   22   23 1    
    44   24   25 1    
    45   25   26 2    
    46   25   27 2    
    47   25   28 1    
    48   28   33 ar   
    49   28   29 ar   
    50   29   30 ar   
    51   29   35 1    
    52   30   31 ar   
    53   30   52 1    
    54   31   32 ar   
    55   31   53 1    
    56   32   33 ar   
    57   32   54 1    
    58   33   34 1    
@<TRIPOS>SUBSTRUCTURE
     1 DAB         1 GROUP             0       ****    0 ROOT    
@<TRIPOS>MOLECULE
~{N}-[3-[5-(2-aminopyrimidin-4-yl)-2-~{tert}-butyl-thiazol-4-yl]-2-fluoro-phenyl]-2,6-difluoro-benzenesulfonamide
56   59    1
SMALL
USER_CHARGES


@<TRIPOS>ATOM
      1 C1         -0.7704    1.1243    0.7246 C.3       1 DAB        -0.0872 
      2 C2         -2.0904    0.3299    0.6216 C.3       1 DAB        -0.0917 
      3 C3         -3.2789    1.2876    0.8548 C.3       1 DAB        -0.0872 
      4 C4         -2.1995   -0.1873   -0.8307 C.3       1 DAB        -0.0872 
      5 C5         -2.1077   -0.7840    1.6815 C.cat     1 DAB         0.3996 
      6 N1         -2.2053   -2.0668    1.4112 N.pl3     1 DAB        -0.5994 
      7 C6         -2.1915   -2.7753    2.5968 C.cat     1 DAB         0.4081 
      8 C7         -2.0846   -2.0224    3.7475 C.2       1 DAB        -0.2686 
      9 S1         -1.9952   -0.3589    3.3402 S.3       1 DAB        -0.0239 
     10 C8         -2.0399   -2.4085    5.1380 C.ar      1 DAB         0.5581 
     11 C9         -3.0793   -3.0998    5.7264 C.ar      1 DAB        -0.3960 
     12 C10        -2.9119   -3.4069    7.0613 C.ar      1 DAB         0.4636 
     13 N2         -1.8185   -3.0705    7.7766 N.ar      1 DAB        -0.7434 
     14 C11        -0.8750   -2.3985    7.0899 C.ar      1 DAB         0.8692 
     15 N3         -0.9190   -2.0403    5.7925 N.ar      1 DAB        -0.7565 
     16 N4          0.2847   -2.0306    7.8069 N.pl3     1 DAB        -0.9317 
     17 C12        -2.2873   -4.2090    2.5984 C.ar      1 DAB        -0.1345 
     18 C13        -1.2577   -4.9716    3.1498 C.ar      1 DAB        -0.0873 
     19 C14        -1.3462   -6.3637    3.1539 C.ar      1 DAB        -0.1257 
     20 C15        -2.4642   -6.9931    2.6065 C.ar      1 DAB        -0.1195 
     21 C16        -3.4937   -6.2304    2.0551 C.ar      1 DAB         0.1038 
     22 C17        -3.4053   -4.8383    2.0510 C.ar      1 DAB         0.1410 
     23 F1         -4.3989   -4.1093    1.5188 F         1 DAB        -0.1248 
     24 N5         -4.6360   -6.8785    1.4949 N.pl3     1 DAB        -0.7822 
     25 S2         -5.5977   -7.8873    2.5075 S.o2      1 DAB         1.5124 
     26 O1         -6.7853   -8.2929    1.7791 O.2       1 DAB        -0.6285 
     27 O2         -4.7656   -8.8899    3.1443 O.2       1 DAB        -0.6285 
     28 C18        -6.1261   -6.7507    3.7572 C.ar      1 DAB        -0.4285 
     29 C19        -6.8731   -5.6261    3.4063 C.ar      1 DAB         0.2577 
     30 C20        -7.2894   -4.7303    4.3911 C.ar      1 DAB        -0.2123 
     31 C21        -6.9586   -4.9589    5.7268 C.ar      1 DAB        -0.0246 
     32 C22        -6.2116   -6.0835    6.0776 C.ar      1 DAB        -0.2123 
     33 C23        -5.7953   -6.9793    5.0928 C.ar      1 DAB         0.2577 
     34 F2         -5.0783   -8.0566    5.4423 F         1 DAB        -0.1099 
     35 F3         -7.1967   -5.3955    2.1261 F         1 DAB        -0.1099 
     36 H1          0.0796    0.4460    0.5591 H         1 DAB         0.0439 
     37 H2         -0.6907    1.5748    1.7250 H         1 DAB         0.0439 
     38 H3         -0.7598    1.9180   -0.0369 H         1 DAB         0.0439 
     39 H4         -4.2220    0.7260    0.7824 H         1 DAB         0.0439 
     40 H5         -3.2652    2.0811    0.0931 H         1 DAB         0.0439 
     41 H6         -3.1961    1.7379    1.8550 H         1 DAB         0.0439 
     42 H7         -3.1307   -0.7612   -0.9465 H         1 DAB         0.0439 
     43 H8         -1.3392   -0.8351   -1.0548 H         1 DAB         0.0439 
     44 H9         -2.2062    0.6664   -1.5244 H         1 DAB         0.0439 
     45 H10        -3.9738   -3.3883    5.1885 H         1 DAB         0.1630 
     46 H11        -3.6761   -3.9474    7.6095 H         1 DAB         0.0284 
     47 H12         1.0920   -1.4799    7.3019 H         1 DAB         0.4311 
     48 H13         0.3808   -2.2948    8.8704 H         1 DAB         0.4311 
     49 H14        -0.3794   -4.4965    3.5803 H         1 DAB         0.1544 
     50 H15        -0.5447   -6.9577    3.5834 H         1 DAB         0.1443 
     51 H16        -2.5239   -8.0783    2.6147 H         1 DAB         0.1406 
     52 H17        -4.9063   -6.7432    0.4373 H         1 DAB         0.4686 
     53 H18        -7.8708   -3.8548    4.1173 H         1 DAB         0.1620 
     54 H19        -7.2832   -4.2613    6.4933 H         1 DAB         0.1498 
     55 H20        -5.9537   -6.2611    7.1175 H         1 DAB         0.1620 
     56 H56        -2.2804   -2.4047    0.3671 H         1 DAB         0.0000 
@<TRIPOS>BOND
     1    1    2 1    
     2    1   36 1    
     3    1   37 1    
     4    1   38 1    
     5    2    3 1    
     6    2    4 1    
     7    2    5 1    
     8    3   39 1    
     9    3   40 1    
    10    3   41 1    
    11    4   42 1    
    12    4   43 1    
    13    4   44 1    
    14    5    9 1    
    15    5    6 ar   
    16    6    7 ar   
    17    6   56 1    
    18    7    8 2    
    19    7   17 1    
    20    8    9 1    
    21    8   10 1    
    22   10   15 ar   
    23   10   11 ar   
    24   11   12 ar   
    25   11   45 1    
    26   12   13 ar   
    27   12   46 1    
    28   13   14 ar   
    29   14   15 ar   
    30   14   16 1    
    31   16   47 1    
    32   16   48 1    
    33   17   22 ar   
    34   17   18 ar   
    35   18   19 ar   
    36   18   49 1    
    37   19   20 ar   
    38   19   50 1    
    39   20   21 ar   
    40   20   51 1    
    41   21   22 ar   
    42   21   24 1    
    43   22   23 1    
    44   24   25 1    
    45   24   52 1    
    46   25   26 2    
    47   25   27 2    
    48   25   28 1    
    49   28   33 ar   
    50   28   29 ar   
    51   29   30 ar   
    52   29   35 1    
    53   30   31 ar   
    54   30   53 1    
    55   31   32 ar   
    56   31   54 1    
    57   32   33 ar   
    58   32   55 1    
    59   33   34 1    
@<TRIPOS>SUBSTRUCTURE
     1 DAB         1 GROUP             0       ****    0 ROOT    
@<TRIPOS>MOLECULE
~{N}-[3-[5-(2-aminopyrimidin-4-yl)-2-~{tert}-butyl-thiazol-4-yl]-2-fluoro-phenyl]-2,6-difluoro-benzenesulfonamide
55   58    1
SMALL
USER_CHARGES


@<TRIPOS>ATOM
      1 C1         -0.7704    1.1243    0.7246 C.3       1 DAB        -0.0872 
      2 C2         -2.0904    0.3299    0.6216 C.3       1 DAB        -0.0917 
      3 C3         -3.2789    1.2876    0.8548 C.3       1 DAB        -0.0872 
      4 C4         -2.1995   -0.1873   -0.8307 C.3       1 DAB        -0.0872 
      5 C5         -2.1077   -0.7840    1.6815 C.2       1 DAB         0.3996 
      6 N1         -2.2053   -2.0668    1.4112 N.2       1 DAB        -0.5994 
      7 C6         -2.1915   -2.7753    2.5968 C.2       1 DAB         0.4081 
      8 C7         -2.0846   -2.0224    3.7475 C.2       1 DAB        -0.2686 
      9 S1         -1.9952   -0.3589    3.3402 S.3       1 DAB        -0.0239 
     10 C8         -2.0399   -2.4085    5.1380 C.ar      1 DAB         0.5581 
     11 C9         -3.0793   -3.0998    5.7264 C.ar      1 DAB        -0.3960 
     12 C10        -2.9119   -3.4069    7.0613 C.ar      1 DAB         0.4636 
     13 N2         -1.8185   -3.0705    7.7766 N.ar      1 DAB        -0.7434 
     14 C11        -0.8750   -2.3985    7.0899 C.ar      1 DAB         0.8692 
     15 N3         -0.9190   -2.0403    5.7925 N.ar      1 DAB        -0.7565 
     16 N4          0.2847   -2.0306    7.8069 N.4       1 DAB        -0.9317 
     17 C12        -2.2873   -4.2090    2.5984 C.ar      1 DAB        -0.1345 
     18 C13        -1.2577   -4.9716    3.1498 C.ar      1 DAB        -0.0873 
     19 C14        -1.3462   -6.3637    3.1539 C.ar      1 DAB        -0.1257 
     20 C15        -2.4642   -6.9931    2.6065 C.ar      1 DAB        -0.1195 
     21 C16        -3.4937   -6.2304    2.0551 C.ar      1 DAB         0.1038 
     22 C17        -3.4053   -4.8383    2.0510 C.ar      1 DAB         0.1410 
     23 F1         -4.3989   -4.1093    1.5188 F         1 DAB        -0.1248 
     24 N5         -4.6360   -6.8785    1.4949 N.2       1 DAB        -0.7822 
     25 S2         -5.5977   -7.8873    2.5075 S.o2      1 DAB         1.5124 
     26 O1         -6.7853   -8.2929    1.7791 O.2       1 DAB        -0.6285 
     27 O2         -4.7656   -8.8899    3.1443 O.2       1 DAB        -0.6285 
     28 C18        -6.1261   -6.7507    3.7572 C.ar      1 DAB        -0.4285 
     29 C19        -6.8731   -5.6261    3.4063 C.ar      1 DAB         0.2577 
     30 C20        -7.2894   -4.7303    4.3911 C.ar      1 DAB        -0.2123 
     31 C21        -6.9586   -4.9589    5.7268 C.ar      1 DAB        -0.0246 
     32 C22        -6.2116   -6.0835    6.0776 C.ar      1 DAB        -0.2123 
     33 C23        -5.7953   -6.9793    5.0928 C.ar      1 DAB         0.2577 
     34 F2         -5.0783   -8.0566    5.4423 F         1 DAB        -0.1099 
     35 F3         -7.1967   -5.3955    2.1261 F         1 DAB        -0.1099 
     36 H1          0.0796    0.4460    0.5591 H         1 DAB         0.0439 
     37 H2         -0.6907    1.5748    1.7250 H         1 DAB         0.0439 
     38 H3         -0.7598    1.9180   -0.0369 H         1 DAB         0.0439 
     39 H4         -4.2220    0.7260    0.7824 H         1 DAB         0.0439 
     40 H5         -3.2652    2.0811    0.0931 H         1 DAB         0.0439 
     41 H6         -3.1961    1.7379    1.8550 H         1 DAB         0.0439 
     42 H7         -3.1307   -0.7612   -0.9465 H         1 DAB         0.0439 
     43 H8         -1.3392   -0.8351   -1.0548 H         1 DAB         0.0439 
     44 H9         -2.2062    0.6664   -1.5244 H         1 DAB         0.0439 
     45 H10        -3.9738   -3.3883    5.1885 H         1 DAB         0.1630 
     46 H11        -3.6761   -3.9474    7.6095 H         1 DAB         0.0284 
     47 H12         0.9729   -1.4915    7.1393 H         1 DAB         0.4311 
     48 H13         0.7799   -2.9343    8.1918 H         1 DAB         0.4311 
     49 H14        -0.3794   -4.4965    3.5803 H         1 DAB         0.1544 
     50 H15        -0.5447   -6.9577    3.5834 H         1 DAB         0.1443 
     51 H16        -2.5239   -8.0783    2.6147 H         1 DAB         0.1406 
     52 H18        -7.8708   -3.8548    4.1173 H         1 DAB         0.1620 
     53 H19        -7.2832   -4.2613    6.4933 H         1 DAB         0.1498 
     54 H20        -5.9537   -6.2611    7.1175 H         1 DAB         0.1620 
     55 H55         0.0046   -1.3795    8.6481 H         1 DAB         0.0000 
@<TRIPOS>BOND
     1    1    2 1    
     2    1   36 1    
     3    1   37 1    
     4    1   38 1    
     5    2    3 1    
     6    2    4 1    
     7    2    5 1    
     8    3   39 1    
     9    3   40 1    
    10    3   41 1    
    11    4   42 1    
    12    4   43 1    
    13    4   44 1    
    14    5    9 1    
    15    5    6 2    
    16    6    7 1    
    17    7    8 2    
    18    7   17 1    
    19    8    9 1    
    20    8   10 1    
    21   10   15 ar   
    22   10   11 ar   
    23   11   12 ar   
    24   11   45 1    
    25   12   13 ar   
    26   12   46 1    
    27   13   14 ar   
    28   14   15 ar   
    29   14   16 1    
    30   16   47 1    
    31   16   48 1    
    32   16   55 1    
    33   17   22 ar   
    34   17   18 ar   
    35   18   19 ar   
    36   18   49 1    
    37   19   20 ar   
    38   19   50 1    
    39   20   21 ar   
    40   20   51 1    
    41   21   22 ar   
    42   21   24 1    
    43   22   23 1    
    44   24   25 1    
    45   25   26 2    
    46   25   27 2    
    47   25   28 1    
    48   28   33 ar   
    49   28   29 ar   
    50   29   30 ar   
    51   29   35 1    
    52   30   31 ar   
    53   30   52 1    
    54   31   32 ar   
    55   31   53 1    
    56   32   33 ar   
    57   32   54 1    
    58   33   34 1    
@<TRIPOS>SUBSTRUCTURE
     1 DAB         1 GROUP             0       ****    0 ROOT    
@<TRIPOS>MOLECULE
~{N}-[3-[5-(2-aminopyrimidin-4-yl)-2-~{tert}-butyl-thiazol-4-yl]-2-fluoro-phenyl]-2,6-difluoro-benzenesulfonamide
56   59    1
SMALL
USER_CHARGES


@<TRIPOS>ATOM
      1 C1         -0.7704    1.1243    0.7246 C.3       1 DAB        -0.0872 
      2 C2         -2.0904    0.3299    0.6216 C.3       1 DAB        -0.0917 
      3 C3         -3.2789    1.2876    0.8548 C.3       1 DAB        -0.0872 
      4 C4         -2.1995   -0.1873   -0.8307 C.3       1 DAB        -0.0872 
      5 C5         -2.1077   -0.7840    1.6815 C.2       1 DAB         0.3996 
      6 N1         -2.2053   -2.0668    1.4112 N.2       1 DAB        -0.5994 
      7 C6         -2.1915   -2.7753    2.5968 C.2       1 DAB         0.4081 
      8 C7         -2.0846   -2.0224    3.7475 C.2       1 DAB        -0.2686 
      9 S1         -1.9952   -0.3589    3.3402 S.3       1 DAB        -0.0239 
     10 C8         -2.0399   -2.4085    5.1380 C.ar      1 DAB         0.5581 
     11 C9         -3.0793   -3.0998    5.7264 C.ar      1 DAB        -0.3960 
     12 C10        -2.9119   -3.4069    7.0613 C.ar      1 DAB         0.4636 
     13 N2         -1.8185   -3.0705    7.7766 N.ar      1 DAB        -0.7434 
     14 C11        -0.8750   -2.3985    7.0899 C.ar      1 DAB         0.8692 
     15 N3         -0.9190   -2.0403    5.7925 N.ar      1 DAB        -0.7565 
     16 N4          0.2847   -2.0306    7.8069 N.4       1 DAB        -0.9317 
     17 C12        -2.2873   -4.2090    2.5984 C.ar      1 DAB        -0.1345 
     18 C13        -1.2577   -4.9716    3.1498 C.ar      1 DAB        -0.0873 
     19 C14        -1.3462   -6.3637    3.1539 C.ar      1 DAB        -0.1257 
     20 C15        -2.4642   -6.9931    2.6065 C.ar      1 DAB        -0.1195 
     21 C16        -3.4937   -6.2304    2.0551 C.ar      1 DAB         0.1038 
     22 C17        -3.4053   -4.8383    2.0510 C.ar      1 DAB         0.1410 
     23 F1         -4.3989   -4.1093    1.5188 F         1 DAB        -0.1248 
     24 N5         -4.6360   -6.8785    1.4949 N.pl3     1 DAB        -0.7822 
     25 S2         -5.5977   -7.8873    2.5075 S.o2      1 DAB         1.5124 
     26 O1         -6.7853   -8.2929    1.7791 O.2       1 DAB        -0.6285 
     27 O2         -4.7656   -8.8899    3.1443 O.2       1 DAB        -0.6285 
     28 C18        -6.1261   -6.7507    3.7572 C.ar      1 DAB        -0.4285 
     29 C19        -6.8731   -5.6261    3.4063 C.ar      1 DAB         0.2577 
     30 C20        -7.2894   -4.7303    4.3911 C.ar      1 DAB        -0.2123 
     31 C21        -6.9586   -4.9589    5.7268 C.ar      1 DAB        -0.0246 
     32 C22        -6.2116   -6.0835    6.0776 C.ar      1 DAB        -0.2123 
     33 C23        -5.7953   -6.9793    5.0928 C.ar      1 DAB         0.2577 
     34 F2         -5.0783   -8.0566    5.4423 F         1 DAB        -0.1099 
     35 F3         -7.1967   -5.3955    2.1261 F         1 DAB        -0.1099 
     36 H1          0.0796    0.4460    0.5591 H         1 DAB         0.0439 
     37 H2         -0.6907    1.5748    1.7250 H         1 DAB         0.0439 
     38 H3         -0.7598    1.9180   -0.0369 H         1 DAB         0.0439 
     39 H4         -4.2220    0.7260    0.7824 H         1 DAB         0.0439 
     40 H5         -3.2652    2.0811    0.0931 H         1 DAB         0.0439 
     41 H6         -3.1961    1.7379    1.8550 H         1 DAB         0.0439 
     42 H7         -3.1307   -0.7612   -0.9465 H         1 DAB         0.0439 
     43 H8         -1.3392   -0.8351   -1.0548 H         1 DAB         0.0439 
     44 H9         -2.2062    0.6664   -1.5244 H         1 DAB         0.0439 
     45 H10        -3.9738   -3.3883    5.1885 H         1 DAB         0.1630 
     46 H11        -3.6761   -3.9474    7.6095 H         1 DAB         0.0284 
     47 H12         0.9729   -1.4915    7.1393 H         1 DAB         0.4311 
     48 H13         0.7799   -2.9343    8.1918 H         1 DAB         0.4311 
     49 H14        -0.3794   -4.4965    3.5803 H         1 DAB         0.1544 
     50 H15        -0.5447   -6.9577    3.5834 H         1 DAB         0.1443 
     51 H16        -2.5239   -8.0783    2.6147 H         1 DAB         0.1406 
     52 H17        -4.9063   -6.7432    0.4373 H         1 DAB         0.4686 
     53 H18        -7.8708   -3.8548    4.1173 H         1 DAB         0.1620 
     54 H19        -7.2832   -4.2613    6.4933 H         1 DAB         0.1498 
     55 H20        -5.9537   -6.2611    7.1175 H         1 DAB         0.1620 
     56 H56         0.0046   -1.3795    8.6481 H         1 DAB         0.0000 
@<TRIPOS>BOND
     1    1    2 1    
     2    1   36 1    
     3    1   37 1    
     4    1   38 1    
     5    2    3 1    
     6    2    4 1    
     7    2    5 1    
     8    3   39 1    
     9    3   40 1    
    10    3   41 1    
    11    4   42 1    
    12    4   43 1    
    13    4   44 1    
    14    5    9 1    
    15    5    6 2    
    16    6    7 1    
    17    7    8 2    
    18    7   17 1    
    19    8    9 1    
    20    8   10 1    
    21   10   15 ar   
    22   10   11 ar   
    23   11   12 ar   
    24   11   45 1    
    25   12   13 ar   
    26   12   46 1    
    27   13   14 ar   
    28   14   15 ar   
    29   14   16 1    
    30   16   47 1    
    31   16   48 1    
    32   16   56 1    
    33   17   22 ar   
    34   17   18 ar   
    35   18   19 ar   
    36   18   49 1    
    37   19   20 ar   
    38   19   50 1    
    39   20   21 ar   
    40   20   51 1    
    41   21   22 ar   
    42   21   24 1    
    43   22   23 1    
    44   24   25 1    
    45   24   52 1    
    46   25   26 2    
    47   25   27 2    
    48   25   28 1    
    49   28   33 ar   
    50   28   29 ar   
    51   29   30 ar   
    52   29   35 1    
    53   30   31 ar   
    54   30   53 1    
    55   31   32 ar   
    56   31   54 1    
    57   32   33 ar   
    58   32   55 1    
    59   33   34 1    
@<TRIPOS>SUBSTRUCTURE
     1 DAB         1 GROUP             0       ****    0 ROOT    
@<TRIPOS>MOLECULE
~{N}-[3-[5-(2-aminopyrimidin-4-yl)-2-~{tert}-butyl-thiazol-4-yl]-2-fluoro-phenyl]-2,6-difluoro-benzenesulfonamide
54   57    1
SMALL
USER_CHARGES


@<TRIPOS>ATOM
      1 C1         -0.7691    1.1225    0.7234 C.3       1 DAB        -0.0872 
      2 C2         -2.0893    0.3283    0.6205 C.3       1 DAB        -0.0917 
      3 C3         -3.2776    1.2864    0.8531 C.3       1 DAB        -0.0872 
      4 C4         -2.1983   -0.1895   -0.8316 C.3       1 DAB        -0.0872 
      5 C5         -2.1070   -0.7851    1.6809 C.2       1 DAB         0.3996 
      6 N1         -2.2049   -2.0680    1.4111 N.2       1 DAB        -0.5994 
      7 C6         -2.1914   -2.7760    2.5971 C.2       1 DAB         0.4081 
      8 C7         -2.0845   -2.0226    3.7474 C.2       1 DAB        -0.2686 
      9 S1         -1.9946   -0.3593    3.3394 S.3       1 DAB        -0.0239 
     10 C8         -2.0401   -2.4081    5.1381 C.ar      1 DAB         0.5581 
     11 C9         -3.0793   -3.0998    5.7264 C.ar      1 DAB        -0.3960 
     12 C10        -2.9117   -3.4073    7.0612 C.ar      1 DAB         0.4636 
     13 N2         -1.8185   -3.0705    7.7766 N.pl3     1 DAB        -0.7434 
     14 C11        -0.8750   -2.3985    7.0899 C.ar      1 DAB         0.8692 
     15 N3         -0.9192   -2.0399    5.7926 N.2       1 DAB        -0.7565 
     16 N4          0.2847   -2.0306    7.8069 N.2       1 DAB        -0.9317 
     17 C12        -2.2876   -4.2096    2.5993 C.ar      1 DAB        -0.1345 
     18 C13        -1.2582   -4.9722    3.1512 C.ar      1 DAB        -0.0873 
     19 C14        -1.3471   -6.3643    3.1559 C.ar      1 DAB        -0.1257 
     20 C15        -2.4652   -6.9937    2.6086 C.ar      1 DAB        -0.1195 
     21 C16        -3.4944   -6.2310    2.0567 C.ar      1 DAB         0.1038 
     22 C17        -3.4056   -4.8389    2.0520 C.ar      1 DAB         0.1410 
     23 F1         -4.3990   -4.1099    1.5193 F         1 DAB        -0.1248 
     24 N5         -4.6368   -6.8790    1.4966 N.2       1 DAB        -0.7822 
     25 S2         -5.5989   -7.8872    2.5095 S.o2      1 DAB         1.5124 
     26 O1         -6.7865   -8.2928    1.7811 O.2       1 DAB        -0.6285 
     27 O2         -4.7671   -8.8897    3.1469 O.2       1 DAB        -0.6285 
     28 C18        -6.1272   -6.7499    3.7586 C.ar      1 DAB        -0.4285 
     29 C19        -6.8738   -5.6253    3.4071 C.ar      1 DAB         0.2577 
     30 C20        -7.2901   -4.7289    4.3915 C.ar      1 DAB        -0.2123 
     31 C21        -6.9595   -4.9570    5.7273 C.ar      1 DAB        -0.0246 
     32 C22        -6.2128   -6.0816    6.0787 C.ar      1 DAB        -0.2123 
     33 C23        -5.7966   -6.9780    5.0944 C.ar      1 DAB         0.2577 
     34 F2         -5.0799   -8.0553    5.4444 F         1 DAB        -0.1099 
     35 F3         -7.1972   -5.3951    2.1268 F         1 DAB        -0.1099 
     36 H1          0.0808    0.4439    0.5583 H         1 DAB         0.0439 
     37 H2         -0.6894    1.5734    1.7235 H         1 DAB         0.0439 
     38 H3         -0.7582    1.9159   -0.0385 H         1 DAB         0.0439 
     39 H4         -4.2208    0.7251    0.7808 H         1 DAB         0.0439 
     40 H5         -3.2636    2.0796    0.0911 H         1 DAB         0.0439 
     41 H6         -3.1948    1.7371    1.8531 H         1 DAB         0.0439 
     42 H7         -3.1296   -0.7632   -0.9473 H         1 DAB         0.0439 
     43 H8         -1.3381   -0.8376   -1.0553 H         1 DAB         0.0439 
     44 H9         -2.2047    0.6639   -1.5256 H         1 DAB         0.0439 
     45 H10        -3.9138   -3.3772    5.2503 H         1 DAB         0.1630 
     46 H11        -3.6247   -3.9078    7.5523 H         1 DAB         0.0284 
     47 H12         1.0385   -1.5714    7.3369 H         1 DAB         0.4311 
     48 H13        -1.6631   -3.3039    8.8403 H         1 DAB         0.4311 
     49 H14        -0.3799   -4.4972    3.5816 H         1 DAB         0.1544 
     50 H15        -0.5458   -6.9583    3.5857 H         1 DAB         0.1443 
     51 H16        -2.5251   -8.0789    2.6172 H         1 DAB         0.1406 
     52 H18        -7.8712   -3.8534    4.1172 H         1 DAB         0.1620 
     53 H19        -7.2841   -4.2590    6.4935 H         1 DAB         0.1498 
     54 H20        -5.9551   -6.2589    7.1187 H         1 DAB         0.1620 
@<TRIPOS>BOND
     1    1    2 1    
     2    1   36 1    
     3    1   37 1    
     4    1   38 1    
     5    2    3 1    
     6    2    4 1    
     7    2    5 1    
     8    3   39 1    
     9    3   40 1    
    10    3   41 1    
    11    4   42 1    
    12    4   43 1    
    13    4   44 1    
    14    5    9 1    
    15    5    6 2    
    16    6    7 1    
    17    7    8 2    
    18    7   17 1    
    19    8    9 1    
    20    8   10 1    
    21   10   11 ar   
    22   10   15 ar   
    23   11   12 ar   
    24   11   45 1    
    25   12   13 ar   
    26   12   46 1    
    27   13   14 ar   
    28   13   48 1    
    29   14   16 2    
    30   14   15 ar   
    31   16   47 1    
    32   17   22 ar   
    33   17   18 ar   
    34   18   19 ar   
    35   18   49 1    
    36   19   20 ar   
    37   19   50 1    
    38   20   21 ar   
    39   20   51 1    
    40   21   22 ar   
    41   21   24 1    
    42   22   23 1    
    43   24   25 1    
    44   25   26 2    
    45   25   27 2    
    46   25   28 1    
    47   28   33 ar   
    48   28   29 ar   
    49   29   30 ar   
    50   29   35 1    
    51   30   31 ar   
    52   30   52 1    
    53   31   32 ar   
    54   31   53 1    
    55   32   33 ar   
    56   32   54 1    
    57   33   34 1    
@<TRIPOS>SUBSTRUCTURE
     1 DAB         1 GROUP             0       ****    0 ROOT    
@<TRIPOS>MOLECULE
~{N}-[3-[5-(2-aminopyrimidin-4-yl)-2-~{tert}-butyl-thiazol-4-yl]-2-fluoro-phenyl]-2,6-difluoro-benzenesulfonamide
54   57    1
SMALL
USER_CHARGES


@<TRIPOS>ATOM
      1 C1         -0.7691    1.1225    0.7234 C.3       1 DAB        -0.0872 
      2 C2         -2.0893    0.3283    0.6205 C.3       1 DAB        -0.0917 
      3 C3         -3.2776    1.2864    0.8531 C.3       1 DAB        -0.0872 
      4 C4         -2.1983   -0.1895   -0.8316 C.3       1 DAB        -0.0872 
      5 C5         -2.1070   -0.7851    1.6809 C.2       1 DAB         0.3996 
      6 N1         -2.2049   -2.0680    1.4111 N.2       1 DAB        -0.5994 
      7 C6         -2.1914   -2.7760    2.5971 C.2       1 DAB         0.4081 
      8 C7         -2.0845   -2.0226    3.7474 C.2       1 DAB        -0.2686 
      9 S1         -1.9946   -0.3593    3.3394 S.3       1 DAB        -0.0239 
     10 C8         -2.0401   -2.4081    5.1381 C.ar      1 DAB         0.5581 
     11 C9         -3.0793   -3.0998    5.7264 C.ar      1 DAB        -0.3960 
     12 C10        -2.9117   -3.4073    7.0612 C.ar      1 DAB         0.4636 
     13 N2         -1.8185   -3.0705    7.7766 N.pl3     1 DAB        -0.7434 
     14 C11        -0.8750   -2.3985    7.0899 C.ar      1 DAB         0.8692 
     15 N3         -0.9192   -2.0399    5.7926 N.2       1 DAB        -0.7565 
     16 N4          0.2847   -2.0306    7.8069 N.2       1 DAB        -0.9317 
     17 C12        -2.2876   -4.2096    2.5993 C.ar      1 DAB        -0.1345 
     18 C13        -1.2582   -4.9722    3.1512 C.ar      1 DAB        -0.0873 
     19 C14        -1.3471   -6.3643    3.1559 C.ar      1 DAB        -0.1257 
     20 C15        -2.4652   -6.9937    2.6086 C.ar      1 DAB        -0.1195 
     21 C16        -3.4944   -6.2310    2.0567 C.ar      1 DAB         0.1038 
     22 C17        -3.4056   -4.8389    2.0520 C.ar      1 DAB         0.1410 
     23 F1         -4.3990   -4.1099    1.5193 F         1 DAB        -0.1248 
     24 N5         -4.6368   -6.8790    1.4966 N.2       1 DAB        -0.7822 
     25 S2         -5.5989   -7.8872    2.5095 S.o2      1 DAB         1.5124 
     26 O1         -6.7865   -8.2928    1.7811 O.2       1 DAB        -0.6285 
     27 O2         -4.7671   -8.8897    3.1469 O.2       1 DAB        -0.6285 
     28 C18        -6.1272   -6.7499    3.7586 C.ar      1 DAB        -0.4285 
     29 C19        -6.8738   -5.6253    3.4071 C.ar      1 DAB         0.2577 
     30 C20        -7.2901   -4.7289    4.3915 C.ar      1 DAB        -0.2123 
     31 C21        -6.9595   -4.9570    5.7273 C.ar      1 DAB        -0.0246 
     32 C22        -6.2128   -6.0816    6.0787 C.ar      1 DAB        -0.2123 
     33 C23        -5.7966   -6.9780    5.0944 C.ar      1 DAB         0.2577 
     34 F2         -5.0799   -8.0553    5.4444 F         1 DAB        -0.1099 
     35 F3         -7.1972   -5.3951    2.1268 F         1 DAB        -0.1099 
     36 H1          0.0808    0.4439    0.5583 H         1 DAB         0.0439 
     37 H2         -0.6894    1.5734    1.7235 H         1 DAB         0.0439 
     38 H3         -0.7582    1.9159   -0.0385 H         1 DAB         0.0439 
     39 H4         -4.2208    0.7251    0.7808 H         1 DAB         0.0439 
     40 H5         -3.2636    2.0796    0.0911 H         1 DAB         0.0439 
     41 H6         -3.1948    1.7371    1.8531 H         1 DAB         0.0439 
     42 H7         -3.1296   -0.7632   -0.9473 H         1 DAB         0.0439 
     43 H8         -1.3381   -0.8376   -1.0553 H         1 DAB         0.0439 
     44 H9         -2.2047    0.6639   -1.5256 H         1 DAB         0.0439 
     45 H10        -3.9138   -3.3772    5.2503 H         1 DAB         0.1630 
     46 H11        -3.6247   -3.9078    7.5523 H         1 DAB         0.0284 
     47 H12         0.3521   -2.2293    8.7846 H         1 DAB         0.4311 
     48 H13        -1.6631   -3.3039    8.8403 H         1 DAB         0.4311 
     49 H14        -0.3799   -4.4972    3.5816 H         1 DAB         0.1544 
     50 H15        -0.5458   -6.9583    3.5857 H         1 DAB         0.1443 
     51 H16        -2.5251   -8.0789    2.6172 H         1 DAB         0.1406 
     52 H18        -7.8712   -3.8534    4.1172 H         1 DAB         0.1620 
     53 H19        -7.2841   -4.2590    6.4935 H         1 DAB         0.1498 
     54 H20        -5.9551   -6.2589    7.1187 H         1 DAB         0.1620 
@<TRIPOS>BOND
     1    1    2 1    
     2    1   36 1    
     3    1   37 1    
     4    1   38 1    
     5    2    3 1    
     6    2    4 1    
     7    2    5 1    
     8    3   39 1    
     9    3   40 1    
    10    3   41 1    
    11    4   42 1    
    12    4   43 1    
    13    4   44 1    
    14    5    9 1    
    15    5    6 2    
    16    6    7 1    
    17    7    8 2    
    18    7   17 1    
    19    8    9 1    
    20    8   10 1    
    21   10   11 ar   
    22   10   15 ar   
    23   11   12 ar   
    24   11   45 1    
    25   12   13 ar   
    26   12   46 1    
    27   13   14 ar   
    28   13   48 1    
    29   14   16 2    
    30   14   15 ar   
    31   16   47 1    
    32   17   22 ar   
    33   17   18 ar   
    34   18   19 ar   
    35   18   49 1    
    36   19   20 ar   
    37   19   50 1    
    38   20   21 ar   
    39   20   51 1    
    40   21   22 ar   
    41   21   24 1    
    42   22   23 1    
    43   24   25 1    
    44   25   26 2    
    45   25   27 2    
    46   25   28 1    
    47   28   33 ar   
    48   28   29 ar   
    49   29   30 ar   
    50   29   35 1    
    51   30   31 ar   
    52   30   52 1    
    53   31   32 ar   
    54   31   53 1    
    55   32   33 ar   
    56   32   54 1    
    57   33   34 1    
@<TRIPOS>SUBSTRUCTURE
     1 DAB         1 GROUP             0       ****    0 ROOT    
@<TRIPOS>MOLECULE
~{N}-[3-[5-(2-aminopyrimidin-4-yl)-2-~{tert}-butyl-thiazol-4-yl]-2-fluoro-phenyl]-2,6-difluoro-benzenesulfonamide
54   57    1
SMALL
USER_CHARGES


@<TRIPOS>ATOM
      1 C1         -0.7718    1.1265    0.7258 C.3       1 DAB        -0.0872 
      2 C2         -2.0917    0.3318    0.6227 C.3       1 DAB        -0.0917 
      3 C3         -3.2803    1.2892    0.8563 C.3       1 DAB        -0.0872 
      4 C4         -2.2008   -0.1849   -0.8298 C.3       1 DAB        -0.0872 
      5 C5         -2.1086   -0.7824    1.6822 C.2       1 DAB         0.3996 
      6 N1         -2.2060   -2.0651    1.4115 N.2       1 DAB        -0.5994 
      7 C6         -2.1919   -2.7740    2.5968 C.2       1 DAB         0.4081 
      8 C7         -2.0850   -2.0215    3.7478 C.2       1 DAB        -0.2686 
      9 S1         -1.9960   -0.3579    3.3410 S.3       1 DAB        -0.0239 
     10 C8         -2.0401   -2.4081    5.1381 C.ar      1 DAB         0.5581 
     11 C9         -3.0793   -3.0998    5.7264 C.ar      1 DAB        -0.3960 
     12 C10        -2.9117   -3.4073    7.0612 C.ar      1 DAB         0.4636 
     13 N2         -1.8175   -3.0726    7.7760 N.2       1 DAB        -0.7434 
     14 C11        -0.8740   -2.4005    7.0893 C.ar      1 DAB         0.8692 
     15 N3         -0.9187   -2.0408    5.7923 N.pl3     1 DAB        -0.7565 
     16 N4          0.2862   -2.0336    7.8060 N.2       1 DAB        -0.9317 
     17 C12        -2.2874   -4.2078    2.5979 C.ar      1 DAB        -0.1345 
     18 C13        -1.2576   -4.9703    3.1490 C.ar      1 DAB        -0.0873 
     19 C14        -1.3458   -6.3625    3.1526 C.ar      1 DAB        -0.1257 
     20 C15        -2.4637   -6.9919    2.6051 C.ar      1 DAB        -0.1195 
     21 C16        -3.4934   -6.2292    2.0541 C.ar      1 DAB         0.1038 
     22 C17        -3.4053   -4.8371    2.0504 C.ar      1 DAB         0.1410 
     23 F1         -4.3991   -4.1081    1.5186 F         1 DAB        -0.1248 
     24 N5         -4.6357   -6.8774    1.4938 N.2       1 DAB        -0.7822 
     25 S2         -5.5970   -7.8867    2.5061 S.o2      1 DAB         1.5124 
     26 O1         -6.7846   -8.2923    1.7777 O.2       1 DAB        -0.6285 
     27 O2         -4.7647   -8.8894    3.1425 O.2       1 DAB        -0.6285 
     28 C18        -6.1255   -6.7507    3.7563 C.ar      1 DAB        -0.4285 
     29 C19        -6.8728   -5.6261    3.4058 C.ar      1 DAB         0.2577 
     30 C20        -7.2892   -4.7307    4.3910 C.ar      1 DAB        -0.2123 
     31 C21        -6.9582   -4.9597    5.7266 C.ar      1 DAB        -0.0246 
     32 C22        -6.2109   -6.0843    6.0769 C.ar      1 DAB        -0.2123 
     33 C23        -5.7946   -6.9797    5.0918 C.ar      1 DAB         0.2577 
     34 F2         -5.0773   -8.0569    5.4408 F         1 DAB        -0.1099 
     35 F3         -7.1966   -5.3951    2.1258 F         1 DAB        -0.1099 
     36 H1          0.0783    0.4484    0.5600 H         1 DAB         0.0439 
     37 H2         -0.6921    1.5766    1.7263 H         1 DAB         0.0439 
     38 H3         -0.7615    1.9205   -0.0354 H         1 DAB         0.0439 
     39 H4         -4.2233    0.7275    0.7838 H         1 DAB         0.0439 
     40 H5         -3.2669    2.0830    0.0949 H         1 DAB         0.0439 
     41 H6         -3.1976    1.7392    1.8567 H         1 DAB         0.0439 
     42 H7         -3.1319   -0.7590   -0.9457 H         1 DAB         0.0439 
     43 H8         -1.3404   -0.8325   -1.0542 H         1 DAB         0.0439 
     44 H9         -2.2078    0.6690   -1.5232 H         1 DAB         0.0439 
     45 H10        -3.8854   -3.3446    5.1876 H         1 DAB         0.1630 
     46 H11        -3.6594   -3.9086    7.4967 H         1 DAB         0.0284 
     47 H12         1.0399   -1.5743    7.3360 H         1 DAB         0.4311 
     48 H13        -0.1280   -1.4899    5.2620 H         1 DAB         0.4311 
     49 H14        -0.3793   -4.4952    3.5795 H         1 DAB         0.1544 
     50 H15        -0.5441   -6.9564    3.5818 H         1 DAB         0.1443 
     51 H16        -2.5232   -8.0771    2.6129 H         1 DAB         0.1406 
     52 H18        -7.8708   -3.8553    4.1176 H         1 DAB         0.1620 
     53 H19        -7.2829   -4.2624    6.4934 H         1 DAB         0.1498 
     54 H20        -5.9529   -6.2622    7.1167 H         1 DAB         0.1620 
@<TRIPOS>BOND
     1    1    2 1    
     2    1   36 1    
     3    1   37 1    
     4    1   38 1    
     5    2    3 1    
     6    2    4 1    
     7    2    5 1    
     8    3   39 1    
     9    3   40 1    
    10    3   41 1    
    11    4   42 1    
    12    4   43 1    
    13    4   44 1    
    14    5    9 1    
    15    5    6 2    
    16    6    7 1    
    17    7    8 2    
    18    7   17 1    
    19    8    9 1    
    20    8   10 1    
    21   10   11 ar   
    22   10   15 ar   
    23   11   12 ar   
    24   11   45 1    
    25   12   13 ar   
    26   12   46 1    
    27   13   14 ar   
    28   14   16 2    
    29   14   15 ar   
    30   15   48 1    
    31   16   47 1    
    32   17   22 ar   
    33   17   18 ar   
    34   18   19 ar   
    35   18   49 1    
    36   19   20 ar   
    37   19   50 1    
    38   20   21 ar   
    39   20   51 1    
    40   21   22 ar   
    41   21   24 1    
    42   22   23 1    
    43   24   25 1    
    44   25   26 2    
    45   25   27 2    
    46   25   28 1    
    47   28   33 ar   
    48   28   29 ar   
    49   29   30 ar   
    50   29   35 1    
    51   30   31 ar   
    52   30   52 1    
    53   31   32 ar   
    54   31   53 1    
    55   32   33 ar   
    56   32   54 1    
    57   33   34 1    
@<TRIPOS>SUBSTRUCTURE
     1 DAB         1 GROUP             0       ****    0 ROOT    
@<TRIPOS>MOLECULE
~{N}-[3-[5-(2-aminopyrimidin-4-yl)-2-~{tert}-butyl-thiazol-4-yl]-2-fluoro-phenyl]-2,6-difluoro-benzenesulfonamide
54   57    1
SMALL
USER_CHARGES


@<TRIPOS>ATOM
      1 C1         -0.7718    1.1265    0.7258 C.3       1 DAB        -0.0872 
      2 C2         -2.0917    0.3318    0.6227 C.3       1 DAB        -0.0917 
      3 C3         -3.2803    1.2892    0.8563 C.3       1 DAB        -0.0872 
      4 C4         -2.2008   -0.1849   -0.8298 C.3       1 DAB        -0.0872 
      5 C5         -2.1086   -0.7824    1.6822 C.2       1 DAB         0.3996 
      6 N1         -2.2060   -2.0651    1.4115 N.2       1 DAB        -0.5994 
      7 C6         -2.1919   -2.7740    2.5968 C.2       1 DAB         0.4081 
      8 C7         -2.0850   -2.0215    3.7478 C.2       1 DAB        -0.2686 
      9 S1         -1.9960   -0.3579    3.3410 S.3       1 DAB        -0.0239 
     10 C8         -2.0401   -2.4081    5.1381 C.ar      1 DAB         0.5581 
     11 C9         -3.0793   -3.0998    5.7264 C.ar      1 DAB        -0.3960 
     12 C10        -2.9117   -3.4073    7.0612 C.ar      1 DAB         0.4636 
     13 N2         -1.8175   -3.0726    7.7760 N.2       1 DAB        -0.7434 
     14 C11        -0.8740   -2.4005    7.0893 C.ar      1 DAB         0.8692 
     15 N3         -0.9187   -2.0408    5.7923 N.pl3     1 DAB        -0.7565 
     16 N4          0.2862   -2.0336    7.8060 N.2       1 DAB        -0.9317 
     17 C12        -2.2874   -4.2078    2.5979 C.ar      1 DAB        -0.1345 
     18 C13        -1.2576   -4.9703    3.1490 C.ar      1 DAB        -0.0873 
     19 C14        -1.3458   -6.3625    3.1526 C.ar      1 DAB        -0.1257 
     20 C15        -2.4637   -6.9919    2.6051 C.ar      1 DAB        -0.1195 
     21 C16        -3.4934   -6.2292    2.0541 C.ar      1 DAB         0.1038 
     22 C17        -3.4053   -4.8371    2.0504 C.ar      1 DAB         0.1410 
     23 F1         -4.3991   -4.1081    1.5186 F         1 DAB        -0.1248 
     24 N5         -4.6357   -6.8774    1.4938 N.2       1 DAB        -0.7822 
     25 S2         -5.5970   -7.8867    2.5061 S.o2      1 DAB         1.5124 
     26 O1         -6.7846   -8.2923    1.7777 O.2       1 DAB        -0.6285 
     27 O2         -4.7647   -8.8894    3.1425 O.2       1 DAB        -0.6285 
     28 C18        -6.1255   -6.7507    3.7563 C.ar      1 DAB        -0.4285 
     29 C19        -6.8728   -5.6261    3.4058 C.ar      1 DAB         0.2577 
     30 C20        -7.2892   -4.7307    4.3910 C.ar      1 DAB        -0.2123 
     31 C21        -6.9582   -4.9597    5.7266 C.ar      1 DAB        -0.0246 
     32 C22        -6.2109   -6.0843    6.0769 C.ar      1 DAB        -0.2123 
     33 C23        -5.7946   -6.9797    5.0918 C.ar      1 DAB         0.2577 
     34 F2         -5.0773   -8.0569    5.4408 F         1 DAB        -0.1099 
     35 F3         -7.1966   -5.3951    2.1258 F         1 DAB        -0.1099 
     36 H1          0.0783    0.4484    0.5600 H         1 DAB         0.0439 
     37 H2         -0.6921    1.5766    1.7263 H         1 DAB         0.0439 
     38 H3         -0.7615    1.9205   -0.0354 H         1 DAB         0.0439 
     39 H4         -4.2233    0.7275    0.7838 H         1 DAB         0.0439 
     40 H5         -3.2669    2.0830    0.0949 H         1 DAB         0.0439 
     41 H6         -3.1976    1.7392    1.8567 H         1 DAB         0.0439 
     42 H7         -3.1319   -0.7590   -0.9457 H         1 DAB         0.0439 
     43 H8         -1.3404   -0.8325   -1.0542 H         1 DAB         0.0439 
     44 H9         -2.2078    0.6690   -1.5232 H         1 DAB         0.0439 
     45 H10        -3.8854   -3.3446    5.1876 H         1 DAB         0.1630 
     46 H11        -3.6594   -3.9086    7.4967 H         1 DAB         0.0284 
     47 H12         0.3540   -2.2331    8.7836 H         1 DAB         0.4311 
     48 H13        -0.1280   -1.4899    5.2620 H         1 DAB         0.4311 
     49 H14        -0.3793   -4.4952    3.5795 H         1 DAB         0.1544 
     50 H15        -0.5441   -6.9564    3.5818 H         1 DAB         0.1443 
     51 H16        -2.5232   -8.0771    2.6129 H         1 DAB         0.1406 
     52 H18        -7.8708   -3.8553    4.1176 H         1 DAB         0.1620 
     53 H19        -7.2829   -4.2624    6.4934 H         1 DAB         0.1498 
     54 H20        -5.9529   -6.2622    7.1167 H         1 DAB         0.1620 
@<TRIPOS>BOND
     1    1    2 1    
     2    1   36 1    
     3    1   37 1    
     4    1   38 1    
     5    2    3 1    
     6    2    4 1    
     7    2    5 1    
     8    3   39 1    
     9    3   40 1    
    10    3   41 1    
    11    4   42 1    
    12    4   43 1    
    13    4   44 1    
    14    5    9 1    
    15    5    6 2    
    16    6    7 1    
    17    7    8 2    
    18    7   17 1    
    19    8    9 1    
    20    8   10 1    
    21   10   11 ar   
    22   10   15 ar   
    23   11   12 ar   
    24   11   45 1    
    25   12   13 ar   
    26   12   46 1    
    27   13   14 ar   
    28   14   16 2    
    29   14   15 ar   
    30   15   48 1    
    31   16   47 1    
    32   17   22 ar   
    33   17   18 ar   
    34   18   19 ar   
    35   18   49 1    
    36   19   20 ar   
    37   19   50 1    
    38   20   21 ar   
    39   20   51 1    
    40   21   22 ar   
    41   21   24 1    
    42   22   23 1    
    43   24   25 1    
    44   25   26 2    
    45   25   27 2    
    46   25   28 1    
    47   28   33 ar   
    48   28   29 ar   
    49   29   30 ar   
    50   29   35 1    
    51   30   31 ar   
    52   30   52 1    
    53   31   32 ar   
    54   31   53 1    
    55   32   33 ar   
    56   32   54 1    
    57   33   34 1    
@<TRIPOS>SUBSTRUCTURE
     1 DAB         1 GROUP             0       ****    0 ROOT    
@<TRIPOS>MOLECULE
~{N}-[3-[5-(2-aminopyrimidin-4-yl)-2-~{tert}-butyl-thiazol-4-yl]-2-fluoro-phenyl]-2,6-difluoro-benzenesulfonamide
55   58    1
SMALL
USER_CHARGES


@<TRIPOS>ATOM
      1 C1         -0.7691    1.1225    0.7234 C.3       1 DAB        -0.0872 
      2 C2         -2.0893    0.3283    0.6205 C.3       1 DAB        -0.0917 
      3 C3         -3.2776    1.2864    0.8531 C.3       1 DAB        -0.0872 
      4 C4         -2.1983   -0.1895   -0.8316 C.3       1 DAB        -0.0872 
      5 C5         -2.1070   -0.7851    1.6809 C.2       1 DAB         0.3996 
      6 N1         -2.2049   -2.0680    1.4111 N.2       1 DAB        -0.5994 
      7 C6         -2.1914   -2.7760    2.5971 C.2       1 DAB         0.4081 
      8 C7         -2.0845   -2.0226    3.7474 C.2       1 DAB        -0.2686 
      9 S1         -1.9946   -0.3593    3.3394 S.3       1 DAB        -0.0239 
     10 C8         -2.0401   -2.4081    5.1381 C.ar      1 DAB         0.5581 
     11 C9         -3.0793   -3.0998    5.7264 C.ar      1 DAB        -0.3960 
     12 C10        -2.9117   -3.4073    7.0612 C.ar      1 DAB         0.4636 
     13 N2         -1.8185   -3.0705    7.7766 N.pl3     1 DAB        -0.7434 
     14 C11        -0.8750   -2.3985    7.0899 C.ar      1 DAB         0.8692 
     15 N3         -0.9192   -2.0399    5.7926 N.2       1 DAB        -0.7565 
     16 N4          0.2847   -2.0306    7.8069 N.2       1 DAB        -0.9317 
     17 C12        -2.2876   -4.2096    2.5993 C.ar      1 DAB        -0.1345 
     18 C13        -1.2582   -4.9722    3.1512 C.ar      1 DAB        -0.0873 
     19 C14        -1.3471   -6.3643    3.1559 C.ar      1 DAB        -0.1257 
     20 C15        -2.4652   -6.9937    2.6086 C.ar      1 DAB        -0.1195 
     21 C16        -3.4944   -6.2310    2.0567 C.ar      1 DAB         0.1038 
     22 C17        -3.4056   -4.8389    2.0520 C.ar      1 DAB         0.1410 
     23 F1         -4.3990   -4.1099    1.5193 F         1 DAB        -0.1248 
     24 N5         -4.6368   -6.8790    1.4966 N.pl3     1 DAB        -0.7822 
     25 S2         -5.5989   -7.8872    2.5095 S.o2      1 DAB         1.5124 
     26 O1         -6.7865   -8.2928    1.7811 O.2       1 DAB        -0.6285 
     27 O2         -4.7671   -8.8897    3.1469 O.2       1 DAB        -0.6285 
     28 C18        -6.1272   -6.7499    3.7586 C.ar      1 DAB        -0.4285 
     29 C19        -6.8738   -5.6253    3.4071 C.ar      1 DAB         0.2577 
     30 C20        -7.2901   -4.7289    4.3915 C.ar      1 DAB        -0.2123 
     31 C21        -6.9595   -4.9570    5.7273 C.ar      1 DAB        -0.0246 
     32 C22        -6.2128   -6.0816    6.0787 C.ar      1 DAB        -0.2123 
     33 C23        -5.7966   -6.9780    5.0944 C.ar      1 DAB         0.2577 
     34 F2         -5.0799   -8.0553    5.4444 F         1 DAB        -0.1099 
     35 F3         -7.1972   -5.3951    2.1268 F         1 DAB        -0.1099 
     36 H1          0.0808    0.4439    0.5583 H         1 DAB         0.0439 
     37 H2         -0.6894    1.5734    1.7235 H         1 DAB         0.0439 
     38 H3         -0.7582    1.9159   -0.0385 H         1 DAB         0.0439 
     39 H4         -4.2208    0.7251    0.7808 H         1 DAB         0.0439 
     40 H5         -3.2636    2.0796    0.0911 H         1 DAB         0.0439 
     41 H6         -3.1948    1.7371    1.8531 H         1 DAB         0.0439 
     42 H7         -3.1296   -0.7632   -0.9473 H         1 DAB         0.0439 
     43 H8         -1.3381   -0.8376   -1.0553 H         1 DAB         0.0439 
     44 H9         -2.2047    0.6639   -1.5256 H         1 DAB         0.0439 
     45 H10        -3.9138   -3.3772    5.2503 H         1 DAB         0.1630 
     46 H11        -3.6247   -3.9078    7.5523 H         1 DAB         0.0284 
     47 H12         1.0385   -1.5714    7.3369 H         1 DAB         0.4311 
     48 H13        -1.6631   -3.3039    8.8403 H         1 DAB         0.4311 
     49 H14        -0.3799   -4.4972    3.5816 H         1 DAB         0.1544 
     50 H15        -0.5458   -6.9583    3.5857 H         1 DAB         0.1443 
     51 H16        -2.5251   -8.0789    2.6172 H         1 DAB         0.1406 
     52 H17        -4.9069   -6.7441    0.4389 H         1 DAB         0.4686 
     53 H18        -7.8712   -3.8534    4.1172 H         1 DAB         0.1620 
     54 H19        -7.2841   -4.2590    6.4935 H         1 DAB         0.1498 
     55 H20        -5.9551   -6.2589    7.1187 H         1 DAB         0.1620 
@<TRIPOS>BOND
     1    1    2 1    
     2    1   36 1    
     3    1   37 1    
     4    1   38 1    
     5    2    3 1    
     6    2    4 1    
     7    2    5 1    
     8    3   39 1    
     9    3   40 1    
    10    3   41 1    
    11    4   42 1    
    12    4   43 1    
    13    4   44 1    
    14    5    9 1    
    15    5    6 2    
    16    6    7 1    
    17    7    8 2    
    18    7   17 1    
    19    8    9 1    
    20    8   10 1    
    21   10   11 ar   
    22   10   15 ar   
    23   11   12 ar   
    24   11   45 1    
    25   12   13 ar   
    26   12   46 1    
    27   13   14 ar   
    28   13   48 1    
    29   14   16 2    
    30   14   15 ar   
    31   16   47 1    
    32   17   22 ar   
    33   17   18 ar   
    34   18   19 ar   
    35   18   49 1    
    36   19   20 ar   
    37   19   50 1    
    38   20   21 ar   
    39   20   51 1    
    40   21   22 ar   
    41   21   24 1    
    42   22   23 1    
    43   24   25 1    
    44   24   52 1    
    45   25   26 2    
    46   25   27 2    
    47   25   28 1    
    48   28   33 ar   
    49   28   29 ar   
    50   29   30 ar   
    51   29   35 1    
    52   30   31 ar   
    53   30   53 1    
    54   31   32 ar   
    55   31   54 1    
    56   32   33 ar   
    57   32   55 1    
    58   33   34 1    
@<TRIPOS>SUBSTRUCTURE
     1 DAB         1 GROUP             0       ****    0 ROOT    
@<TRIPOS>MOLECULE
~{N}-[3-[5-(2-aminopyrimidin-4-yl)-2-~{tert}-butyl-thiazol-4-yl]-2-fluoro-phenyl]-2,6-difluoro-benzenesulfonamide
55   58    1
SMALL
USER_CHARGES


@<TRIPOS>ATOM
      1 C1         -0.7691    1.1225    0.7234 C.3       1 DAB        -0.0872 
      2 C2         -2.0893    0.3283    0.6205 C.3       1 DAB        -0.0917 
      3 C3         -3.2776    1.2864    0.8531 C.3       1 DAB        -0.0872 
      4 C4         -2.1983   -0.1895   -0.8316 C.3       1 DAB        -0.0872 
      5 C5         -2.1070   -0.7851    1.6809 C.2       1 DAB         0.3996 
      6 N1         -2.2049   -2.0680    1.4111 N.2       1 DAB        -0.5994 
      7 C6         -2.1914   -2.7760    2.5971 C.2       1 DAB         0.4081 
      8 C7         -2.0845   -2.0226    3.7474 C.2       1 DAB        -0.2686 
      9 S1         -1.9946   -0.3593    3.3394 S.3       1 DAB        -0.0239 
     10 C8         -2.0401   -2.4081    5.1381 C.ar      1 DAB         0.5581 
     11 C9         -3.0793   -3.0998    5.7264 C.ar      1 DAB        -0.3960 
     12 C10        -2.9117   -3.4073    7.0612 C.ar      1 DAB         0.4636 
     13 N2         -1.8185   -3.0705    7.7766 N.pl3     1 DAB        -0.7434 
     14 C11        -0.8750   -2.3985    7.0899 C.ar      1 DAB         0.8692 
     15 N3         -0.9192   -2.0399    5.7926 N.2       1 DAB        -0.7565 
     16 N4          0.2847   -2.0306    7.8069 N.2       1 DAB        -0.9317 
     17 C12        -2.2876   -4.2096    2.5993 C.ar      1 DAB        -0.1345 
     18 C13        -1.2582   -4.9722    3.1512 C.ar      1 DAB        -0.0873 
     19 C14        -1.3471   -6.3643    3.1559 C.ar      1 DAB        -0.1257 
     20 C15        -2.4652   -6.9937    2.6086 C.ar      1 DAB        -0.1195 
     21 C16        -3.4944   -6.2310    2.0567 C.ar      1 DAB         0.1038 
     22 C17        -3.4056   -4.8389    2.0520 C.ar      1 DAB         0.1410 
     23 F1         -4.3990   -4.1099    1.5193 F         1 DAB        -0.1248 
     24 N5         -4.6368   -6.8790    1.4966 N.pl3     1 DAB        -0.7822 
     25 S2         -5.5989   -7.8872    2.5095 S.o2      1 DAB         1.5124 
     26 O1         -6.7865   -8.2928    1.7811 O.2       1 DAB        -0.6285 
     27 O2         -4.7671   -8.8897    3.1469 O.2       1 DAB        -0.6285 
     28 C18        -6.1272   -6.7499    3.7586 C.ar      1 DAB        -0.4285 
     29 C19        -6.8738   -5.6253    3.4071 C.ar      1 DAB         0.2577 
     30 C20        -7.2901   -4.7289    4.3915 C.ar      1 DAB        -0.2123 
     31 C21        -6.9595   -4.9570    5.7273 C.ar      1 DAB        -0.0246 
     32 C22        -6.2128   -6.0816    6.0787 C.ar      1 DAB        -0.2123 
     33 C23        -5.7966   -6.9780    5.0944 C.ar      1 DAB         0.2577 
     34 F2         -5.0799   -8.0553    5.4444 F         1 DAB        -0.1099 
     35 F3         -7.1972   -5.3951    2.1268 F         1 DAB        -0.1099 
     36 H1          0.0808    0.4439    0.5583 H         1 DAB         0.0439 
     37 H2         -0.6894    1.5734    1.7235 H         1 DAB         0.0439 
     38 H3         -0.7582    1.9159   -0.0385 H         1 DAB         0.0439 
     39 H4         -4.2208    0.7251    0.7808 H         1 DAB         0.0439 
     40 H5         -3.2636    2.0796    0.0911 H         1 DAB         0.0439 
     41 H6         -3.1948    1.7371    1.8531 H         1 DAB         0.0439 
     42 H7         -3.1296   -0.7632   -0.9473 H         1 DAB         0.0439 
     43 H8         -1.3381   -0.8376   -1.0553 H         1 DAB         0.0439 
     44 H9         -2.2047    0.6639   -1.5256 H         1 DAB         0.0439 
     45 H10        -3.9138   -3.3772    5.2503 H         1 DAB         0.1630 
     46 H11        -3.6247   -3.9078    7.5523 H         1 DAB         0.0284 
     47 H12         0.3521   -2.2293    8.7846 H         1 DAB         0.4311 
     48 H13        -1.6631   -3.3039    8.8403 H         1 DAB         0.4311 
     49 H14        -0.3799   -4.4972    3.5816 H         1 DAB         0.1544 
     50 H15        -0.5458   -6.9583    3.5857 H         1 DAB         0.1443 
     51 H16        -2.5251   -8.0789    2.6172 H         1 DAB         0.1406 
     52 H17        -4.9069   -6.7441    0.4389 H         1 DAB         0.4686 
     53 H18        -7.8712   -3.8534    4.1172 H         1 DAB         0.1620 
     54 H19        -7.2841   -4.2590    6.4935 H         1 DAB         0.1498 
     55 H20        -5.9551   -6.2589    7.1187 H         1 DAB         0.1620 
@<TRIPOS>BOND
     1    1    2 1    
     2    1   36 1    
     3    1   37 1    
     4    1   38 1    
     5    2    3 1    
     6    2    4 1    
     7    2    5 1    
     8    3   39 1    
     9    3   40 1    
    10    3   41 1    
    11    4   42 1    
    12    4   43 1    
    13    4   44 1    
    14    5    9 1    
    15    5    6 2    
    16    6    7 1    
    17    7    8 2    
    18    7   17 1    
    19    8    9 1    
    20    8   10 1    
    21   10   11 ar   
    22   10   15 ar   
    23   11   12 ar   
    24   11   45 1    
    25   12   13 ar   
    26   12   46 1    
    27   13   14 ar   
    28   13   48 1    
    29   14   16 2    
    30   14   15 ar   
    31   16   47 1    
    32   17   22 ar   
    33   17   18 ar   
    34   18   19 ar   
    35   18   49 1    
    36   19   20 ar   
    37   19   50 1    
    38   20   21 ar   
    39   20   51 1    
    40   21   22 ar   
    41   21   24 1    
    42   22   23 1    
    43   24   25 1    
    44   24   52 1    
    45   25   26 2    
    46   25   27 2    
    47   25   28 1    
    48   28   33 ar   
    49   28   29 ar   
    50   29   30 ar   
    51   29   35 1    
    52   30   31 ar   
    53   30   53 1    
    54   31   32 ar   
    55   31   54 1    
    56   32   33 ar   
    57   32   55 1    
    58   33   34 1    
@<TRIPOS>SUBSTRUCTURE
     1 DAB         1 GROUP             0       ****    0 ROOT    
@<TRIPOS>MOLECULE
~{N}-[3-[5-(2-aminopyrimidin-4-yl)-2-~{tert}-butyl-thiazol-4-yl]-2-fluoro-phenyl]-2,6-difluoro-benzenesulfonamide
55   58    1
SMALL
USER_CHARGES


@<TRIPOS>ATOM
      1 C1         -0.7718    1.1265    0.7258 C.3       1 DAB        -0.0872 
      2 C2         -2.0917    0.3318    0.6227 C.3       1 DAB        -0.0917 
      3 C3         -3.2803    1.2892    0.8563 C.3       1 DAB        -0.0872 
      4 C4         -2.2008   -0.1849   -0.8298 C.3       1 DAB        -0.0872 
      5 C5         -2.1086   -0.7824    1.6822 C.2       1 DAB         0.3996 
      6 N1         -2.2060   -2.0651    1.4115 N.2       1 DAB        -0.5994 
      7 C6         -2.1919   -2.7740    2.5968 C.2       1 DAB         0.4081 
      8 C7         -2.0850   -2.0215    3.7478 C.2       1 DAB        -0.2686 
      9 S1         -1.9960   -0.3579    3.3410 S.3       1 DAB        -0.0239 
     10 C8         -2.0401   -2.4081    5.1381 C.ar      1 DAB         0.5581 
     11 C9         -3.0793   -3.0998    5.7264 C.ar      1 DAB        -0.3960 
     12 C10        -2.9117   -3.4073    7.0612 C.ar      1 DAB         0.4636 
     13 N2         -1.8175   -3.0726    7.7760 N.2       1 DAB        -0.7434 
     14 C11        -0.8740   -2.4005    7.0893 C.ar      1 DAB         0.8692 
     15 N3         -0.9187   -2.0408    5.7923 N.pl3     1 DAB        -0.7565 
     16 N4          0.2862   -2.0336    7.8060 N.2       1 DAB        -0.9317 
     17 C12        -2.2874   -4.2078    2.5979 C.ar      1 DAB        -0.1345 
     18 C13        -1.2576   -4.9703    3.1490 C.ar      1 DAB        -0.0873 
     19 C14        -1.3458   -6.3625    3.1526 C.ar      1 DAB        -0.1257 
     20 C15        -2.4637   -6.9919    2.6051 C.ar      1 DAB        -0.1195 
     21 C16        -3.4934   -6.2292    2.0541 C.ar      1 DAB         0.1038 
     22 C17        -3.4053   -4.8371    2.0504 C.ar      1 DAB         0.1410 
     23 F1         -4.3991   -4.1081    1.5186 F         1 DAB        -0.1248 
     24 N5         -4.6357   -6.8774    1.4938 N.pl3     1 DAB        -0.7822 
     25 S2         -5.5970   -7.8867    2.5061 S.o2      1 DAB         1.5124 
     26 O1         -6.7846   -8.2923    1.7777 O.2       1 DAB        -0.6285 
     27 O2         -4.7647   -8.8894    3.1425 O.2       1 DAB        -0.6285 
     28 C18        -6.1255   -6.7507    3.7563 C.ar      1 DAB        -0.4285 
     29 C19        -6.8728   -5.6261    3.4058 C.ar      1 DAB         0.2577 
     30 C20        -7.2892   -4.7307    4.3910 C.ar      1 DAB        -0.2123 
     31 C21        -6.9582   -4.9597    5.7266 C.ar      1 DAB        -0.0246 
     32 C22        -6.2109   -6.0843    6.0769 C.ar      1 DAB        -0.2123 
     33 C23        -5.7946   -6.9797    5.0918 C.ar      1 DAB         0.2577 
     34 F2         -5.0773   -8.0569    5.4408 F         1 DAB        -0.1099 
     35 F3         -7.1966   -5.3951    2.1258 F         1 DAB        -0.1099 
     36 H1          0.0783    0.4484    0.5600 H         1 DAB         0.0439 
     37 H2         -0.6921    1.5766    1.7263 H         1 DAB         0.0439 
     38 H3         -0.7615    1.9205   -0.0354 H         1 DAB         0.0439 
     39 H4         -4.2233    0.7275    0.7838 H         1 DAB         0.0439 
     40 H5         -3.2669    2.0830    0.0949 H         1 DAB         0.0439 
     41 H6         -3.1976    1.7392    1.8567 H         1 DAB         0.0439 
     42 H7         -3.1319   -0.7590   -0.9457 H         1 DAB         0.0439 
     43 H8         -1.3404   -0.8325   -1.0542 H         1 DAB         0.0439 
     44 H9         -2.2078    0.6690   -1.5232 H         1 DAB         0.0439 
     45 H10        -3.8854   -3.3446    5.1876 H         1 DAB         0.1630 
     46 H11        -3.6594   -3.9086    7.4967 H         1 DAB         0.0284 
     47 H12         1.0399   -1.5743    7.3360 H         1 DAB         0.4311 
     48 H13        -0.1280   -1.4899    5.2620 H         1 DAB         0.4311 
     49 H14        -0.3793   -4.4952    3.5795 H         1 DAB         0.1544 
     50 H15        -0.5441   -6.9564    3.5818 H         1 DAB         0.1443 
     51 H16        -2.5232   -8.0771    2.6129 H         1 DAB         0.1406 
     52 H17        -4.9061   -6.7418    0.4362 H         1 DAB         0.4686 
     53 H18        -7.8708   -3.8553    4.1176 H         1 DAB         0.1620 
     54 H19        -7.2829   -4.2624    6.4934 H         1 DAB         0.1498 
     55 H20        -5.9529   -6.2622    7.1167 H         1 DAB         0.1620 
@<TRIPOS>BOND
     1    1    2 1    
     2    1   36 1    
     3    1   37 1    
     4    1   38 1    
     5    2    3 1    
     6    2    4 1    
     7    2    5 1    
     8    3   39 1    
     9    3   40 1    
    10    3   41 1    
    11    4   42 1    
    12    4   43 1    
    13    4   44 1    
    14    5    9 1    
    15    5    6 2    
    16    6    7 1    
    17    7    8 2    
    18    7   17 1    
    19    8    9 1    
    20    8   10 1    
    21   10   11 ar   
    22   10   15 ar   
    23   11   12 ar   
    24   11   45 1    
    25   12   13 ar   
    26   12   46 1    
    27   13   14 ar   
    28   14   16 2    
    29   14   15 ar   
    30   15   48 1    
    31   16   47 1    
    32   17   22 ar   
    33   17   18 ar   
    34   18   19 ar   
    35   18   49 1    
    36   19   20 ar   
    37   19   50 1    
    38   20   21 ar   
    39   20   51 1    
    40   21   22 ar   
    41   21   24 1    
    42   22   23 1    
    43   24   25 1    
    44   24   52 1    
    45   25   26 2    
    46   25   27 2    
    47   25   28 1    
    48   28   33 ar   
    49   28   29 ar   
    50   29   30 ar   
    51   29   35 1    
    52   30   31 ar   
    53   30   53 1    
    54   31   32 ar   
    55   31   54 1    
    56   32   33 ar   
    57   32   55 1    
    58   33   34 1    
@<TRIPOS>SUBSTRUCTURE
     1 DAB         1 GROUP             0       ****    0 ROOT    
@<TRIPOS>MOLECULE
~{N}-[3-[5-(2-aminopyrimidin-4-yl)-2-~{tert}-butyl-thiazol-4-yl]-2-fluoro-phenyl]-2,6-difluoro-benzenesulfonamide
55   58    1
SMALL
USER_CHARGES


@<TRIPOS>ATOM
      1 C1         -0.7718    1.1265    0.7258 C.3       1 DAB        -0.0872 
      2 C2         -2.0917    0.3318    0.6227 C.3       1 DAB        -0.0917 
      3 C3         -3.2803    1.2892    0.8563 C.3       1 DAB        -0.0872 
      4 C4         -2.2008   -0.1849   -0.8298 C.3       1 DAB        -0.0872 
      5 C5         -2.1086   -0.7824    1.6822 C.2       1 DAB         0.3996 
      6 N1         -2.2060   -2.0651    1.4115 N.2       1 DAB        -0.5994 
      7 C6         -2.1919   -2.7740    2.5968 C.2       1 DAB         0.4081 
      8 C7         -2.0850   -2.0215    3.7478 C.2       1 DAB        -0.2686 
      9 S1         -1.9960   -0.3579    3.3410 S.3       1 DAB        -0.0239 
     10 C8         -2.0401   -2.4081    5.1381 C.ar      1 DAB         0.5581 
     11 C9         -3.0793   -3.0998    5.7264 C.ar      1 DAB        -0.3960 
     12 C10        -2.9117   -3.4073    7.0612 C.ar      1 DAB         0.4636 
     13 N2         -1.8175   -3.0726    7.7760 N.2       1 DAB        -0.7434 
     14 C11        -0.8740   -2.4005    7.0893 C.ar      1 DAB         0.8692 
     15 N3         -0.9187   -2.0408    5.7923 N.pl3     1 DAB        -0.7565 
     16 N4          0.2862   -2.0336    7.8060 N.2       1 DAB        -0.9317 
     17 C12        -2.2874   -4.2078    2.5979 C.ar      1 DAB        -0.1345 
     18 C13        -1.2576   -4.9703    3.1490 C.ar      1 DAB        -0.0873 
     19 C14        -1.3458   -6.3625    3.1526 C.ar      1 DAB        -0.1257 
     20 C15        -2.4637   -6.9919    2.6051 C.ar      1 DAB        -0.1195 
     21 C16        -3.4934   -6.2292    2.0541 C.ar      1 DAB         0.1038 
     22 C17        -3.4053   -4.8371    2.0504 C.ar      1 DAB         0.1410 
     23 F1         -4.3991   -4.1081    1.5186 F         1 DAB        -0.1248 
     24 N5         -4.6357   -6.8774    1.4938 N.pl3     1 DAB        -0.7822 
     25 S2         -5.5970   -7.8867    2.5061 S.o2      1 DAB         1.5124 
     26 O1         -6.7846   -8.2923    1.7777 O.2       1 DAB        -0.6285 
     27 O2         -4.7647   -8.8894    3.1425 O.2       1 DAB        -0.6285 
     28 C18        -6.1255   -6.7507    3.7563 C.ar      1 DAB        -0.4285 
     29 C19        -6.8728   -5.6261    3.4058 C.ar      1 DAB         0.2577 
     30 C20        -7.2892   -4.7307    4.3910 C.ar      1 DAB        -0.2123 
     31 C21        -6.9582   -4.9597    5.7266 C.ar      1 DAB        -0.0246 
     32 C22        -6.2109   -6.0843    6.0769 C.ar      1 DAB        -0.2123 
     33 C23        -5.7946   -6.9797    5.0918 C.ar      1 DAB         0.2577 
     34 F2         -5.0773   -8.0569    5.4408 F         1 DAB        -0.1099 
     35 F3         -7.1966   -5.3951    2.1258 F         1 DAB        -0.1099 
     36 H1          0.0783    0.4484    0.5600 H         1 DAB         0.0439 
     37 H2         -0.6921    1.5766    1.7263 H         1 DAB         0.0439 
     38 H3         -0.7615    1.9205   -0.0354 H         1 DAB         0.0439 
     39 H4         -4.2233    0.7275    0.7838 H         1 DAB         0.0439 
     40 H5         -3.2669    2.0830    0.0949 H         1 DAB         0.0439 
     41 H6         -3.1976    1.7392    1.8567 H         1 DAB         0.0439 
     42 H7         -3.1319   -0.7590   -0.9457 H         1 DAB         0.0439 
     43 H8         -1.3404   -0.8325   -1.0542 H         1 DAB         0.0439 
     44 H9         -2.2078    0.6690   -1.5232 H         1 DAB         0.0439 
     45 H10        -3.8854   -3.3446    5.1876 H         1 DAB         0.1630 
     46 H11        -3.6594   -3.9086    7.4967 H         1 DAB         0.0284 
     47 H12         0.3540   -2.2331    8.7836 H         1 DAB         0.4311 
     48 H13        -0.1280   -1.4899    5.2620 H         1 DAB         0.4311 
     49 H14        -0.3793   -4.4952    3.5795 H         1 DAB         0.1544 
     50 H15        -0.5441   -6.9564    3.5818 H         1 DAB         0.1443 
     51 H16        -2.5232   -8.0771    2.6129 H         1 DAB         0.1406 
     52 H17        -4.9061   -6.7418    0.4362 H         1 DAB         0.4686 
     53 H18        -7.8708   -3.8553    4.1176 H         1 DAB         0.1620 
     54 H19        -7.2829   -4.2624    6.4934 H         1 DAB         0.1498 
     55 H20        -5.9529   -6.2622    7.1167 H         1 DAB         0.1620 
@<TRIPOS>BOND
     1    1    2 1    
     2    1   36 1    
     3    1   37 1    
     4    1   38 1    
     5    2    3 1    
     6    2    4 1    
     7    2    5 1    
     8    3   39 1    
     9    3   40 1    
    10    3   41 1    
    11    4   42 1    
    12    4   43 1    
    13    4   44 1    
    14    5    9 1    
    15    5    6 2    
    16    6    7 1    
    17    7    8 2    
    18    7   17 1    
    19    8    9 1    
    20    8   10 1    
    21   10   11 ar   
    22   10   15 ar   
    23   11   12 ar   
    24   11   45 1    
    25   12   13 ar   
    26   12   46 1    
    27   13   14 ar   
    28   14   16 2    
    29   14   15 ar   
    30   15   48 1    
    31   16   47 1    
    32   17   22 ar   
    33   17   18 ar   
    34   18   19 ar   
    35   18   49 1    
    36   19   20 ar   
    37   19   50 1    
    38   20   21 ar   
    39   20   51 1    
    40   21   22 ar   
    41   21   24 1    
    42   22   23 1    
    43   24   25 1    
    44   24   52 1    
    45   25   26 2    
    46   25   27 2    
    47   25   28 1    
    48   28   33 ar   
    49   28   29 ar   
    50   29   30 ar   
    51   29   35 1    
    52   30   31 ar   
    53   30   53 1    
    54   31   32 ar   
    55   31   54 1    
    56   32   33 ar   
    57   32   55 1    
    58   33   34 1    
@<TRIPOS>SUBSTRUCTURE
     1 DAB         1 GROUP             0       ****    0 ROOT    
@<TRIPOS>MOLECULE
~{N}-[3-[5-(2-aminopyrimidin-4-yl)-2-~{tert}-butyl-thiazol-4-yl]-2-fluoro-phenyl]-2,6-difluoro-benzenesulfonamide
55   58    1
SMALL
USER_CHARGES


@<TRIPOS>ATOM
      1 C1         -0.7704    1.1243    0.7246 C.3       1 DAB        -0.0872 
      2 C2         -2.0904    0.3299    0.6216 C.3       1 DAB        -0.0917 
      3 C3         -3.2789    1.2876    0.8548 C.3       1 DAB        -0.0872 
      4 C4         -2.1995   -0.1873   -0.8307 C.3       1 DAB        -0.0872 
      5 C5         -2.1077   -0.7840    1.6815 C.2       1 DAB         0.3996 
      6 N1         -2.2053   -2.0668    1.4112 N.2       1 DAB        -0.5994 
      7 C6         -2.1915   -2.7753    2.5968 C.2       1 DAB         0.4081 
      8 C7         -2.0846   -2.0224    3.7475 C.2       1 DAB        -0.2686 
      9 S1         -1.9952   -0.3589    3.3402 S.3       1 DAB        -0.0239 
     10 C8         -2.0399   -2.4085    5.1380 C.ar      1 DAB         0.5581 
     11 C9         -3.0793   -3.0998    5.7264 C.ar      1 DAB        -0.3960 
     12 C10        -2.9119   -3.4069    7.0613 C.ar      1 DAB         0.4636 
     13 N2         -1.8185   -3.0705    7.7766 N.pl3     1 DAB        -0.7434 
     14 C11        -0.8750   -2.3985    7.0899 C.ar      1 DAB         0.8692 
     15 N3         -0.9190   -2.0403    5.7925 N.ar      1 DAB        -0.7565 
     16 N4          0.2847   -2.0306    7.8069 N.pl3     1 DAB        -0.9317 
     17 C12        -2.2873   -4.2090    2.5984 C.ar      1 DAB        -0.1345 
     18 C13        -1.2577   -4.9716    3.1498 C.ar      1 DAB        -0.0873 
     19 C14        -1.3462   -6.3637    3.1539 C.ar      1 DAB        -0.1257 
     20 C15        -2.4642   -6.9931    2.6065 C.ar      1 DAB        -0.1195 
     21 C16        -3.4937   -6.2304    2.0551 C.ar      1 DAB         0.1038 
     22 C17        -3.4053   -4.8383    2.0510 C.ar      1 DAB         0.1410 
     23 F1         -4.3989   -4.1093    1.5188 F         1 DAB        -0.1248 
     24 N5         -4.6360   -6.8785    1.4949 N.2       1 DAB        -0.7822 
     25 S2         -5.5977   -7.8873    2.5075 S.o2      1 DAB         1.5124 
     26 O1         -6.7853   -8.2929    1.7791 O.2       1 DAB        -0.6285 
     27 O2         -4.7656   -8.8899    3.1443 O.2       1 DAB        -0.6285 
     28 C18        -6.1261   -6.7507    3.7572 C.ar      1 DAB        -0.4285 
     29 C19        -6.8731   -5.6261    3.4063 C.ar      1 DAB         0.2577 
     30 C20        -7.2894   -4.7303    4.3911 C.ar      1 DAB        -0.2123 
     31 C21        -6.9586   -4.9589    5.7268 C.ar      1 DAB        -0.0246 
     32 C22        -6.2116   -6.0835    6.0776 C.ar      1 DAB        -0.2123 
     33 C23        -5.7953   -6.9793    5.0928 C.ar      1 DAB         0.2577 
     34 F2         -5.0783   -8.0566    5.4423 F         1 DAB        -0.1099 
     35 F3         -7.1967   -5.3955    2.1261 F         1 DAB        -0.1099 
     36 H1          0.0796    0.4460    0.5591 H         1 DAB         0.0439 
     37 H2         -0.6907    1.5748    1.7250 H         1 DAB         0.0439 
     38 H3         -0.7598    1.9180   -0.0369 H         1 DAB         0.0439 
     39 H4         -4.2220    0.7260    0.7824 H         1 DAB         0.0439 
     40 H5         -3.2652    2.0811    0.0931 H         1 DAB         0.0439 
     41 H6         -3.1961    1.7379    1.8550 H         1 DAB         0.0439 
     42 H7         -3.1307   -0.7612   -0.9465 H         1 DAB         0.0439 
     43 H8         -1.3392   -0.8351   -1.0548 H         1 DAB         0.0439 
     44 H9         -2.2062    0.6664   -1.5244 H         1 DAB         0.0439 
     45 H10        -3.9738   -3.3883    5.1885 H         1 DAB         0.1630 
     46 H11        -3.6761   -3.9474    7.6095 H         1 DAB         0.0284 
     47 H12         1.0920   -1.4799    7.3019 H         1 DAB         0.4311 
     48 H13         0.3808   -2.2948    8.8704 H         1 DAB         0.4311 
     49 H14        -0.3794   -4.4965    3.5803 H         1 DAB         0.1544 
     50 H15        -0.5447   -6.9577    3.5834 H         1 DAB         0.1443 
     51 H16        -2.5239   -8.0783    2.6147 H         1 DAB         0.1406 
     52 H18        -7.8708   -3.8548    4.1173 H         1 DAB         0.1620 
     53 H19        -7.2832   -4.2613    6.4933 H         1 DAB         0.1498 
     54 H20        -5.9537   -6.2611    7.1175 H         1 DAB         0.1620 
     55 H55        -1.7497   -3.3472    8.8390 H         1 DAB         0.0000 
@<TRIPOS>BOND
     1    1    2 1    
     2    1   36 1    
     3    1   37 1    
     4    1   38 1    
     5    2    3 1    
     6    2    4 1    
     7    2    5 1    
     8    3   39 1    
     9    3   40 1    
    10    3   41 1    
    11    4   42 1    
    12    4   43 1    
    13    4   44 1    
    14    5    9 1    
    15    5    6 2    
    16    6    7 1    
    17    7    8 2    
    18    7   17 1    
    19    8    9 1    
    20    8   10 1    
    21   10   15 ar   
    22   10   11 ar   
    23   11   12 ar   
    24   11   45 1    
    25   12   13 ar   
    26   12   46 1    
    27   13   14 ar   
    28   13   55 1    
    29   14   15 ar   
    30   14   16 1    
    31   16   47 1    
    32   16   48 1    
    33   17   22 ar   
    34   17   18 ar   
    35   18   19 ar   
    36   18   49 1    
    37   19   20 ar   
    38   19   50 1    
    39   20   21 ar   
    40   20   51 1    
    41   21   22 ar   
    42   21   24 1    
    43   22   23 1    
    44   24   25 1    
    45   25   26 2    
    46   25   27 2    
    47   25   28 1    
    48   28   33 ar   
    49   28   29 ar   
    50   29   30 ar   
    51   29   35 1    
    52   30   31 ar   
    53   30   52 1    
    54   31   32 ar   
    55   31   53 1    
    56   32   33 ar   
    57   32   54 1    
    58   33   34 1    
@<TRIPOS>SUBSTRUCTURE
     1 DAB         1 GROUP             0       ****    0 ROOT    
@<TRIPOS>MOLECULE
~{N}-[3-[5-(2-aminopyrimidin-4-yl)-2-~{tert}-butyl-thiazol-4-yl]-2-fluoro-phenyl]-2,6-difluoro-benzenesulfonamide
55   58    1
SMALL
USER_CHARGES


@<TRIPOS>ATOM
      1 C1         -0.7704    1.1243    0.7246 C.3       1 DAB        -0.0872 
      2 C2         -2.0904    0.3299    0.6216 C.3       1 DAB        -0.0917 
      3 C3         -3.2789    1.2876    0.8548 C.3       1 DAB        -0.0872 
      4 C4         -2.1995   -0.1873   -0.8307 C.3       1 DAB        -0.0872 
      5 C5         -2.1077   -0.7840    1.6815 C.2       1 DAB         0.3996 
      6 N1         -2.2053   -2.0668    1.4112 N.2       1 DAB        -0.5994 
      7 C6         -2.1915   -2.7753    2.5968 C.2       1 DAB         0.4081 
      8 C7         -2.0846   -2.0224    3.7475 C.2       1 DAB        -0.2686 
      9 S1         -1.9952   -0.3589    3.3402 S.3       1 DAB        -0.0239 
     10 C8         -2.0399   -2.4085    5.1380 C.ar      1 DAB         0.5581 
     11 C9         -3.0793   -3.0998    5.7264 C.ar      1 DAB        -0.3960 
     12 C10        -2.9119   -3.4069    7.0613 C.ar      1 DAB         0.4636 
     13 N2         -1.8185   -3.0705    7.7766 N.ar      1 DAB        -0.7434 
     14 C11        -0.8750   -2.3985    7.0899 C.ar      1 DAB         0.8692 
     15 N3         -0.9190   -2.0403    5.7925 N.pl3     1 DAB        -0.7565 
     16 N4          0.2847   -2.0306    7.8069 N.pl3     1 DAB        -0.9317 
     17 C12        -2.2873   -4.2090    2.5984 C.ar      1 DAB        -0.1345 
     18 C13        -1.2577   -4.9716    3.1498 C.ar      1 DAB        -0.0873 
     19 C14        -1.3462   -6.3637    3.1539 C.ar      1 DAB        -0.1257 
     20 C15        -2.4642   -6.9931    2.6065 C.ar      1 DAB        -0.1195 
     21 C16        -3.4937   -6.2304    2.0551 C.ar      1 DAB         0.1038 
     22 C17        -3.4053   -4.8383    2.0510 C.ar      1 DAB         0.1410 
     23 F1         -4.3989   -4.1093    1.5188 F         1 DAB        -0.1248 
     24 N5         -4.6360   -6.8785    1.4949 N.2       1 DAB        -0.7822 
     25 S2         -5.5977   -7.8873    2.5075 S.o2      1 DAB         1.5124 
     26 O1         -6.7853   -8.2929    1.7791 O.2       1 DAB        -0.6285 
     27 O2         -4.7656   -8.8899    3.1443 O.2       1 DAB        -0.6285 
     28 C18        -6.1261   -6.7507    3.7572 C.ar      1 DAB        -0.4285 
     29 C19        -6.8731   -5.6261    3.4063 C.ar      1 DAB         0.2577 
     30 C20        -7.2894   -4.7303    4.3911 C.ar      1 DAB        -0.2123 
     31 C21        -6.9586   -4.9589    5.7268 C.ar      1 DAB        -0.0246 
     32 C22        -6.2116   -6.0835    6.0776 C.ar      1 DAB        -0.2123 
     33 C23        -5.7953   -6.9793    5.0928 C.ar      1 DAB         0.2577 
     34 F2         -5.0783   -8.0566    5.4423 F         1 DAB        -0.1099 
     35 F3         -7.1967   -5.3955    2.1261 F         1 DAB        -0.1099 
     36 H1          0.0796    0.4460    0.5591 H         1 DAB         0.0439 
     37 H2         -0.6907    1.5748    1.7250 H         1 DAB         0.0439 
     38 H3         -0.7598    1.9180   -0.0369 H         1 DAB         0.0439 
     39 H4         -4.2220    0.7260    0.7824 H         1 DAB         0.0439 
     40 H5         -3.2652    2.0811    0.0931 H         1 DAB         0.0439 
     41 H6         -3.1961    1.7379    1.8550 H         1 DAB         0.0439 
     42 H7         -3.1307   -0.7612   -0.9465 H         1 DAB         0.0439 
     43 H8         -1.3392   -0.8351   -1.0548 H         1 DAB         0.0439 
     44 H9         -2.2062    0.6664   -1.5244 H         1 DAB         0.0439 
     45 H10        -3.9738   -3.3883    5.1885 H         1 DAB         0.1630 
     46 H11        -3.6761   -3.9474    7.6095 H         1 DAB         0.0284 
     47 H12         1.0920   -1.4799    7.3019 H         1 DAB         0.4311 
     48 H13         0.3808   -2.2948    8.8704 H         1 DAB         0.4311 
     49 H14        -0.3794   -4.4965    3.5803 H         1 DAB         0.1544 
     50 H15        -0.5447   -6.9577    3.5834 H         1 DAB         0.1443 
     51 H16        -2.5239   -8.0783    2.6147 H         1 DAB         0.1406 
     52 H18        -7.8708   -3.8548    4.1173 H         1 DAB         0.1620 
     53 H19        -7.2832   -4.2613    6.4933 H         1 DAB         0.1498 
     54 H20        -5.9537   -6.2611    7.1175 H         1 DAB         0.1620 
     55 H55        -0.1281   -1.4897    5.2621 H         1 DAB         0.0000 
@<TRIPOS>BOND
     1    1    2 1    
     2    1   36 1    
     3    1   37 1    
     4    1   38 1    
     5    2    3 1    
     6    2    4 1    
     7    2    5 1    
     8    3   39 1    
     9    3   40 1    
    10    3   41 1    
    11    4   42 1    
    12    4   43 1    
    13    4   44 1    
    14    5    9 1    
    15    5    6 2    
    16    6    7 1    
    17    7    8 2    
    18    7   17 1    
    19    8    9 1    
    20    8   10 1    
    21   10   15 ar   
    22   10   11 ar   
    23   11   12 ar   
    24   11   45 1    
    25   12   13 ar   
    26   12   46 1    
    27   13   14 ar   
    28   14   15 ar   
    29   14   16 1    
    30   15   55 1    
    31   16   47 1    
    32   16   48 1    
    33   17   22 ar   
    34   17   18 ar   
    35   18   19 ar   
    36   18   49 1    
    37   19   20 ar   
    38   19   50 1    
    39   20   21 ar   
    40   20   51 1    
    41   21   22 ar   
    42   21   24 1    
    43   22   23 1    
    44   24   25 1    
    45   25   26 2    
    46   25   27 2    
    47   25   28 1    
    48   28   33 ar   
    49   28   29 ar   
    50   29   30 ar   
    51   29   35 1    
    52   30   31 ar   
    53   30   52 1    
    54   31   32 ar   
    55   31   53 1    
    56   32   33 ar   
    57   32   54 1    
    58   33   34 1    
@<TRIPOS>SUBSTRUCTURE
     1 DAB         1 GROUP             0       ****    0 ROOT    
@<TRIPOS>MOLECULE
~{N}-[3-[5-(2-aminopyrimidin-4-yl)-2-~{tert}-butyl-thiazol-4-yl]-2-fluoro-phenyl]-2,6-difluoro-benzenesulfonamide
56   59    1
SMALL
USER_CHARGES


@<TRIPOS>ATOM
      1 C1         -0.7704    1.1243    0.7246 C.3       1 DAB        -0.0872 
      2 C2         -2.0904    0.3299    0.6216 C.3       1 DAB        -0.0917 
      3 C3         -3.2789    1.2876    0.8548 C.3       1 DAB        -0.0872 
      4 C4         -2.1995   -0.1873   -0.8307 C.3       1 DAB        -0.0872 
      5 C5         -2.1077   -0.7840    1.6815 C.2       1 DAB         0.3996 
      6 N1         -2.2053   -2.0668    1.4112 N.2       1 DAB        -0.5994 
      7 C6         -2.1915   -2.7753    2.5968 C.2       1 DAB         0.4081 
      8 C7         -2.0846   -2.0224    3.7475 C.2       1 DAB        -0.2686 
      9 S1         -1.9952   -0.3589    3.3402 S.3       1 DAB        -0.0239 
     10 C8         -2.0399   -2.4085    5.1380 C.ar      1 DAB         0.5581 
     11 C9         -3.0793   -3.0998    5.7264 C.ar      1 DAB        -0.3960 
     12 C10        -2.9119   -3.4069    7.0613 C.ar      1 DAB         0.4636 
     13 N2         -1.8185   -3.0705    7.7766 N.pl3     1 DAB        -0.7434 
     14 C11        -0.8750   -2.3985    7.0899 C.ar      1 DAB         0.8692 
     15 N3         -0.9190   -2.0403    5.7925 N.ar      1 DAB        -0.7565 
     16 N4          0.2847   -2.0306    7.8069 N.pl3     1 DAB        -0.9317 
     17 C12        -2.2873   -4.2090    2.5984 C.ar      1 DAB        -0.1345 
     18 C13        -1.2577   -4.9716    3.1498 C.ar      1 DAB        -0.0873 
     19 C14        -1.3462   -6.3637    3.1539 C.ar      1 DAB        -0.1257 
     20 C15        -2.4642   -6.9931    2.6065 C.ar      1 DAB        -0.1195 
     21 C16        -3.4937   -6.2304    2.0551 C.ar      1 DAB         0.1038 
     22 C17        -3.4053   -4.8383    2.0510 C.ar      1 DAB         0.1410 
     23 F1         -4.3989   -4.1093    1.5188 F         1 DAB        -0.1248 
     24 N5         -4.6360   -6.8785    1.4949 N.pl3     1 DAB        -0.7822 
     25 S2         -5.5977   -7.8873    2.5075 S.o2      1 DAB         1.5124 
     26 O1         -6.7853   -8.2929    1.7791 O.2       1 DAB        -0.6285 
     27 O2         -4.7656   -8.8899    3.1443 O.2       1 DAB        -0.6285 
     28 C18        -6.1261   -6.7507    3.7572 C.ar      1 DAB        -0.4285 
     29 C19        -6.8731   -5.6261    3.4063 C.ar      1 DAB         0.2577 
     30 C20        -7.2894   -4.7303    4.3911 C.ar      1 DAB        -0.2123 
     31 C21        -6.9586   -4.9589    5.7268 C.ar      1 DAB        -0.0246 
     32 C22        -6.2116   -6.0835    6.0776 C.ar      1 DAB        -0.2123 
     33 C23        -5.7953   -6.9793    5.0928 C.ar      1 DAB         0.2577 
     34 F2         -5.0783   -8.0566    5.4423 F         1 DAB        -0.1099 
     35 F3         -7.1967   -5.3955    2.1261 F         1 DAB        -0.1099 
     36 H1          0.0796    0.4460    0.5591 H         1 DAB         0.0439 
     37 H2         -0.6907    1.5748    1.7250 H         1 DAB         0.0439 
     38 H3         -0.7598    1.9180   -0.0369 H         1 DAB         0.0439 
     39 H4         -4.2220    0.7260    0.7824 H         1 DAB         0.0439 
     40 H5         -3.2652    2.0811    0.0931 H         1 DAB         0.0439 
     41 H6         -3.1961    1.7379    1.8550 H         1 DAB         0.0439 
     42 H7         -3.1307   -0.7612   -0.9465 H         1 DAB         0.0439 
     43 H8         -1.3392   -0.8351   -1.0548 H         1 DAB         0.0439 
     44 H9         -2.2062    0.6664   -1.5244 H         1 DAB         0.0439 
     45 H10        -3.9738   -3.3883    5.1885 H         1 DAB         0.1630 
     46 H11        -3.6761   -3.9474    7.6095 H         1 DAB         0.0284 
     47 H12         1.0920   -1.4799    7.3019 H         1 DAB         0.4311 
     48 H13         0.3808   -2.2948    8.8704 H         1 DAB         0.4311 
     49 H14        -0.3794   -4.4965    3.5803 H         1 DAB         0.1544 
     50 H15        -0.5447   -6.9577    3.5834 H         1 DAB         0.1443 
     51 H16        -2.5239   -8.0783    2.6147 H         1 DAB         0.1406 
     52 H17        -4.9063   -6.7432    0.4373 H         1 DAB         0.4686 
     53 H18        -7.8708   -3.8548    4.1173 H         1 DAB         0.1620 
     54 H19        -7.2832   -4.2613    6.4933 H         1 DAB         0.1498 
     55 H20        -5.9537   -6.2611    7.1175 H         1 DAB         0.1620 
     56 H56        -1.7497   -3.3472    8.8390 H         1 DAB         0.0000 
@<TRIPOS>BOND
     1    1    2 1    
     2    1   36 1    
     3    1   37 1    
     4    1   38 1    
     5    2    3 1    
     6    2    4 1    
     7    2    5 1    
     8    3   39 1    
     9    3   40 1    
    10    3   41 1    
    11    4   42 1    
    12    4   43 1    
    13    4   44 1    
    14    5    9 1    
    15    5    6 2    
    16    6    7 1    
    17    7    8 2    
    18    7   17 1    
    19    8    9 1    
    20    8   10 1    
    21   10   15 ar   
    22   10   11 ar   
    23   11   12 ar   
    24   11   45 1    
    25   12   13 ar   
    26   12   46 1    
    27   13   14 ar   
    28   13   56 1    
    29   14   15 ar   
    30   14   16 1    
    31   16   47 1    
    32   16   48 1    
    33   17   22 ar   
    34   17   18 ar   
    35   18   19 ar   
    36   18   49 1    
    37   19   20 ar   
    38   19   50 1    
    39   20   21 ar   
    40   20   51 1    
    41   21   22 ar   
    42   21   24 1    
    43   22   23 1    
    44   24   25 1    
    45   24   52 1    
    46   25   26 2    
    47   25   27 2    
    48   25   28 1    
    49   28   33 ar   
    50   28   29 ar   
    51   29   30 ar   
    52   29   35 1    
    53   30   31 ar   
    54   30   53 1    
    55   31   32 ar   
    56   31   54 1    
    57   32   33 ar   
    58   32   55 1    
    59   33   34 1    
@<TRIPOS>SUBSTRUCTURE
     1 DAB         1 GROUP             0       ****    0 ROOT    
@<TRIPOS>MOLECULE
~{N}-[3-[5-(2-aminopyrimidin-4-yl)-2-~{tert}-butyl-thiazol-4-yl]-2-fluoro-phenyl]-2,6-difluoro-benzenesulfonamide
53   56    1
SMALL
USER_CHARGES


@<TRIPOS>ATOM
      1 C1         -0.7718    1.1265    0.7258 C.3       1 DAB        -0.0872 
      2 C2         -2.0917    0.3318    0.6227 C.3       1 DAB        -0.0917 
      3 C3         -3.2803    1.2892    0.8563 C.3       1 DAB        -0.0872 
      4 C4         -2.2008   -0.1849   -0.8298 C.3       1 DAB        -0.0872 
      5 C5         -2.1086   -0.7824    1.6822 C.2       1 DAB         0.3996 
      6 N1         -2.2060   -2.0651    1.4115 N.2       1 DAB        -0.5994 
      7 C6         -2.1919   -2.7740    2.5968 C.2       1 DAB         0.4081 
      8 C7         -2.0850   -2.0215    3.7478 C.2       1 DAB        -0.2686 
      9 S1         -1.9960   -0.3579    3.3410 S.3       1 DAB        -0.0239 
     10 C8         -2.0401   -2.4081    5.1381 C.ar      1 DAB         0.5581 
     11 C9         -3.0793   -3.0998    5.7264 C.ar      1 DAB        -0.3960 
     12 C10        -2.9117   -3.4073    7.0612 C.ar      1 DAB         0.4636 
     13 N2         -1.8175   -3.0726    7.7760 N.ar      1 DAB        -0.7434 
     14 C11        -0.8740   -2.4005    7.0893 C.ar      1 DAB         0.8692 
     15 N3         -0.9187   -2.0408    5.7923 N.2       1 DAB        -0.7565 
     16 N4          0.2862   -2.0336    7.8060 N.2       1 DAB        -0.9317 
     17 C12        -2.2874   -4.2078    2.5979 C.ar      1 DAB        -0.1345 
     18 C13        -1.2576   -4.9703    3.1490 C.ar      1 DAB        -0.0873 
     19 C14        -1.3458   -6.3625    3.1526 C.ar      1 DAB        -0.1257 
     20 C15        -2.4637   -6.9919    2.6051 C.ar      1 DAB        -0.1195 
     21 C16        -3.4934   -6.2292    2.0541 C.ar      1 DAB         0.1038 
     22 C17        -3.4053   -4.8371    2.0504 C.ar      1 DAB         0.1410 
     23 F1         -4.3991   -4.1081    1.5186 F         1 DAB        -0.1248 
     24 N5         -4.6357   -6.8774    1.4938 N.2       1 DAB        -0.7822 
     25 S2         -5.5970   -7.8867    2.5061 S.o2      1 DAB         1.5124 
     26 O1         -6.7846   -8.2923    1.7777 O.2       1 DAB        -0.6285 
     27 O2         -4.7647   -8.8894    3.1425 O.2       1 DAB        -0.6285 
     28 C18        -6.1255   -6.7507    3.7563 C.ar      1 DAB        -0.4285 
     29 C19        -6.8728   -5.6261    3.4058 C.ar      1 DAB         0.2577 
     30 C20        -7.2892   -4.7307    4.3910 C.ar      1 DAB        -0.2123 
     31 C21        -6.9582   -4.9597    5.7266 C.ar      1 DAB        -0.0246 
     32 C22        -6.2109   -6.0843    6.0769 C.ar      1 DAB        -0.2123 
     33 C23        -5.7946   -6.9797    5.0918 C.ar      1 DAB         0.2577 
     34 F2         -5.0773   -8.0569    5.4408 F         1 DAB        -0.1099 
     35 F3         -7.1966   -5.3951    2.1258 F         1 DAB        -0.1099 
     36 H1          0.0783    0.4484    0.5600 H         1 DAB         0.0439 
     37 H2         -0.6921    1.5766    1.7263 H         1 DAB         0.0439 
     38 H3         -0.7615    1.9205   -0.0354 H         1 DAB         0.0439 
     39 H4         -4.2233    0.7275    0.7838 H         1 DAB         0.0439 
     40 H5         -3.2669    2.0830    0.0949 H         1 DAB         0.0439 
     41 H6         -3.1976    1.7392    1.8567 H         1 DAB         0.0439 
     42 H7         -3.1319   -0.7590   -0.9457 H         1 DAB         0.0439 
     43 H8         -1.3404   -0.8325   -1.0542 H         1 DAB         0.0439 
     44 H9         -2.2078    0.6690   -1.5232 H         1 DAB         0.0439 
     45 H10        -3.8854   -3.3446    5.1876 H         1 DAB         0.1630 
     46 H11        -3.6594   -3.9086    7.4967 H         1 DAB         0.0284 
     47 H12         1.0399   -1.5743    7.3360 H         1 DAB         0.4311 
     48 H14        -0.3793   -4.4952    3.5795 H         1 DAB         0.1544 
     49 H15        -0.5441   -6.9564    3.5818 H         1 DAB         0.1443 
     50 H16        -2.5232   -8.0771    2.6129 H         1 DAB         0.1406 
     51 H18        -7.8708   -3.8553    4.1176 H         1 DAB         0.1620 
     52 H19        -7.2829   -4.2624    6.4934 H         1 DAB         0.1498 
     53 H20        -5.9529   -6.2622    7.1167 H         1 DAB         0.1620 
@<TRIPOS>BOND
     1    1    2 1    
     2    1   36 1    
     3    1   37 1    
     4    1   38 1    
     5    2    3 1    
     6    2    4 1    
     7    2    5 1    
     8    3   39 1    
     9    3   40 1    
    10    3   41 1    
    11    4   42 1    
    12    4   43 1    
    13    4   44 1    
    14    5    9 1    
    15    5    6 2    
    16    6    7 1    
    17    7    8 2    
    18    7   17 1    
    19    8    9 1    
    20    8   10 1    
    21   10   11 ar   
    22   10   15 ar   
    23   11   12 ar   
    24   11   45 1    
    25   12   13 ar   
    26   12   46 1    
    27   13   14 ar   
    28   14   16 2    
    29   14   15 ar   
    30   16   47 1    
    31   17   22 ar   
    32   17   18 ar   
    33   18   19 ar   
    34   18   48 1    
    35   19   20 ar   
    36   19   49 1    
    37   20   21 ar   
    38   20   50 1    
    39   21   22 ar   
    40   21   24 1    
    41   22   23 1    
    42   24   25 1    
    43   25   26 2    
    44   25   27 2    
    45   25   28 1    
    46   28   33 ar   
    47   28   29 ar   
    48   29   30 ar   
    49   29   35 1    
    50   30   31 ar   
    51   30   51 1    
    52   31   32 ar   
    53   31   52 1    
    54   32   33 ar   
    55   32   53 1    
    56   33   34 1    
@<TRIPOS>SUBSTRUCTURE
     1 DAB         1 GROUP             0       ****    0 ROOT    
@<TRIPOS>MOLECULE
~{N}-[3-[5-(2-aminopyrimidin-4-yl)-2-~{tert}-butyl-thiazol-4-yl]-2-fluoro-phenyl]-2,6-difluoro-benzenesulfonamide
53   56    1
SMALL
USER_CHARGES


@<TRIPOS>ATOM
      1 C1         -0.7718    1.1265    0.7258 C.3       1 DAB        -0.0872 
      2 C2         -2.0917    0.3318    0.6227 C.3       1 DAB        -0.0917 
      3 C3         -3.2803    1.2892    0.8563 C.3       1 DAB        -0.0872 
      4 C4         -2.2008   -0.1849   -0.8298 C.3       1 DAB        -0.0872 
      5 C5         -2.1086   -0.7824    1.6822 C.2       1 DAB         0.3996 
      6 N1         -2.2060   -2.0651    1.4115 N.2       1 DAB        -0.5994 
      7 C6         -2.1919   -2.7740    2.5968 C.2       1 DAB         0.4081 
      8 C7         -2.0850   -2.0215    3.7478 C.2       1 DAB        -0.2686 
      9 S1         -1.9960   -0.3579    3.3410 S.3       1 DAB        -0.0239 
     10 C8         -2.0401   -2.4081    5.1381 C.ar      1 DAB         0.5581 
     11 C9         -3.0793   -3.0998    5.7264 C.ar      1 DAB        -0.3960 
     12 C10        -2.9117   -3.4073    7.0612 C.ar      1 DAB         0.4636 
     13 N2         -1.8175   -3.0726    7.7760 N.ar      1 DAB        -0.7434 
     14 C11        -0.8740   -2.4005    7.0893 C.ar      1 DAB         0.8692 
     15 N3         -0.9187   -2.0408    5.7923 N.2       1 DAB        -0.7565 
     16 N4          0.2862   -2.0336    7.8060 N.2       1 DAB        -0.9317 
     17 C12        -2.2874   -4.2078    2.5979 C.ar      1 DAB        -0.1345 
     18 C13        -1.2576   -4.9703    3.1490 C.ar      1 DAB        -0.0873 
     19 C14        -1.3458   -6.3625    3.1526 C.ar      1 DAB        -0.1257 
     20 C15        -2.4637   -6.9919    2.6051 C.ar      1 DAB        -0.1195 
     21 C16        -3.4934   -6.2292    2.0541 C.ar      1 DAB         0.1038 
     22 C17        -3.4053   -4.8371    2.0504 C.ar      1 DAB         0.1410 
     23 F1         -4.3991   -4.1081    1.5186 F         1 DAB        -0.1248 
     24 N5         -4.6357   -6.8774    1.4938 N.2       1 DAB        -0.7822 
     25 S2         -5.5970   -7.8867    2.5061 S.o2      1 DAB         1.5124 
     26 O1         -6.7846   -8.2923    1.7777 O.2       1 DAB        -0.6285 
     27 O2         -4.7647   -8.8894    3.1425 O.2       1 DAB        -0.6285 
     28 C18        -6.1255   -6.7507    3.7563 C.ar      1 DAB        -0.4285 
     29 C19        -6.8728   -5.6261    3.4058 C.ar      1 DAB         0.2577 
     30 C20        -7.2892   -4.7307    4.3910 C.ar      1 DAB        -0.2123 
     31 C21        -6.9582   -4.9597    5.7266 C.ar      1 DAB        -0.0246 
     32 C22        -6.2109   -6.0843    6.0769 C.ar      1 DAB        -0.2123 
     33 C23        -5.7946   -6.9797    5.0918 C.ar      1 DAB         0.2577 
     34 F2         -5.0773   -8.0569    5.4408 F         1 DAB        -0.1099 
     35 F3         -7.1966   -5.3951    2.1258 F         1 DAB        -0.1099 
     36 H1          0.0783    0.4484    0.5600 H         1 DAB         0.0439 
     37 H2         -0.6921    1.5766    1.7263 H         1 DAB         0.0439 
     38 H3         -0.7615    1.9205   -0.0354 H         1 DAB         0.0439 
     39 H4         -4.2233    0.7275    0.7838 H         1 DAB         0.0439 
     40 H5         -3.2669    2.0830    0.0949 H         1 DAB         0.0439 
     41 H6         -3.1976    1.7392    1.8567 H         1 DAB         0.0439 
     42 H7         -3.1319   -0.7590   -0.9457 H         1 DAB         0.0439 
     43 H8         -1.3404   -0.8325   -1.0542 H         1 DAB         0.0439 
     44 H9         -2.2078    0.6690   -1.5232 H         1 DAB         0.0439 
     45 H10        -3.8854   -3.3446    5.1876 H         1 DAB         0.1630 
     46 H11        -3.6594   -3.9086    7.4967 H         1 DAB         0.0284 
     47 H12         0.3540   -2.2331    8.7836 H         1 DAB         0.4311 
     48 H14        -0.3793   -4.4952    3.5795 H         1 DAB         0.1544 
     49 H15        -0.5441   -6.9564    3.5818 H         1 DAB         0.1443 
     50 H16        -2.5232   -8.0771    2.6129 H         1 DAB         0.1406 
     51 H18        -7.8708   -3.8553    4.1176 H         1 DAB         0.1620 
     52 H19        -7.2829   -4.2624    6.4934 H         1 DAB         0.1498 
     53 H20        -5.9529   -6.2622    7.1167 H         1 DAB         0.1620 
@<TRIPOS>BOND
     1    1    2 1    
     2    1   36 1    
     3    1   37 1    
     4    1   38 1    
     5    2    3 1    
     6    2    4 1    
     7    2    5 1    
     8    3   39 1    
     9    3   40 1    
    10    3   41 1    
    11    4   42 1    
    12    4   43 1    
    13    4   44 1    
    14    5    9 1    
    15    5    6 2    
    16    6    7 1    
    17    7    8 2    
    18    7   17 1    
    19    8    9 1    
    20    8   10 1    
    21   10   11 ar   
    22   10   15 ar   
    23   11   12 ar   
    24   11   45 1    
    25   12   13 ar   
    26   12   46 1    
    27   13   14 ar   
    28   14   16 2    
    29   14   15 ar   
    30   16   47 1    
    31   17   22 ar   
    32   17   18 ar   
    33   18   19 ar   
    34   18   48 1    
    35   19   20 ar   
    36   19   49 1    
    37   20   21 ar   
    38   20   50 1    
    39   21   22 ar   
    40   21   24 1    
    41   22   23 1    
    42   24   25 1    
    43   25   26 2    
    44   25   27 2    
    45   25   28 1    
    46   28   33 ar   
    47   28   29 ar   
    48   29   30 ar   
    49   29   35 1    
    50   30   31 ar   
    51   30   51 1    
    52   31   32 ar   
    53   31   52 1    
    54   32   33 ar   
    55   32   53 1    
    56   33   34 1    
@<TRIPOS>SUBSTRUCTURE
     1 DAB         1 GROUP             0       ****    0 ROOT    
@<TRIPOS>MOLECULE
~{N}-[3-[5-(2-aminopyrimidin-4-yl)-2-~{tert}-butyl-thiazol-4-yl]-2-fluoro-phenyl]-2,6-difluoro-benzenesulfonamide
56   59    1
SMALL
USER_CHARGES


@<TRIPOS>ATOM
      1 C1         -0.7704    1.1243    0.7246 C.3       1 DAB        -0.0872 
      2 C2         -2.0904    0.3299    0.6216 C.3       1 DAB        -0.0917 
      3 C3         -3.2789    1.2876    0.8548 C.3       1 DAB        -0.0872 
      4 C4         -2.1995   -0.1873   -0.8307 C.3       1 DAB        -0.0872 
      5 C5         -2.1077   -0.7840    1.6815 C.2       1 DAB         0.3996 
      6 N1         -2.2053   -2.0668    1.4112 N.2       1 DAB        -0.5994 
      7 C6         -2.1915   -2.7753    2.5968 C.2       1 DAB         0.4081 
      8 C7         -2.0846   -2.0224    3.7475 C.2       1 DAB        -0.2686 
      9 S1         -1.9952   -0.3589    3.3402 S.3       1 DAB        -0.0239 
     10 C8         -2.0399   -2.4085    5.1380 C.ar      1 DAB         0.5581 
     11 C9         -3.0793   -3.0998    5.7264 C.ar      1 DAB        -0.3960 
     12 C10        -2.9119   -3.4069    7.0613 C.ar      1 DAB         0.4636 
     13 N2         -1.8185   -3.0705    7.7766 N.ar      1 DAB        -0.7434 
     14 C11        -0.8750   -2.3985    7.0899 C.ar      1 DAB         0.8692 
     15 N3         -0.9190   -2.0403    5.7925 N.pl3     1 DAB        -0.7565 
     16 N4          0.2847   -2.0306    7.8069 N.pl3     1 DAB        -0.9317 
     17 C12        -2.2873   -4.2090    2.5984 C.ar      1 DAB        -0.1345 
     18 C13        -1.2577   -4.9716    3.1498 C.ar      1 DAB        -0.0873 
     19 C14        -1.3462   -6.3637    3.1539 C.ar      1 DAB        -0.1257 
     20 C15        -2.4642   -6.9931    2.6065 C.ar      1 DAB        -0.1195 
     21 C16        -3.4937   -6.2304    2.0551 C.ar      1 DAB         0.1038 
     22 C17        -3.4053   -4.8383    2.0510 C.ar      1 DAB         0.1410 
     23 F1         -4.3989   -4.1093    1.5188 F         1 DAB        -0.1248 
     24 N5         -4.6360   -6.8785    1.4949 N.pl3     1 DAB        -0.7822 
     25 S2         -5.5977   -7.8873    2.5075 S.o2      1 DAB         1.5124 
     26 O1         -6.7853   -8.2929    1.7791 O.2       1 DAB        -0.6285 
     27 O2         -4.7656   -8.8899    3.1443 O.2       1 DAB        -0.6285 
     28 C18        -6.1261   -6.7507    3.7572 C.ar      1 DAB        -0.4285 
     29 C19        -6.8731   -5.6261    3.4063 C.ar      1 DAB         0.2577 
     30 C20        -7.2894   -4.7303    4.3911 C.ar      1 DAB        -0.2123 
     31 C21        -6.9586   -4.9589    5.7268 C.ar      1 DAB        -0.0246 
     32 C22        -6.2116   -6.0835    6.0776 C.ar      1 DAB        -0.2123 
     33 C23        -5.7953   -6.9793    5.0928 C.ar      1 DAB         0.2577 
     34 F2         -5.0783   -8.0566    5.4423 F         1 DAB        -0.1099 
     35 F3         -7.1967   -5.3955    2.1261 F         1 DAB        -0.1099 
     36 H1          0.0796    0.4460    0.5591 H         1 DAB         0.0439 
     37 H2         -0.6907    1.5748    1.7250 H         1 DAB         0.0439 
     38 H3         -0.7598    1.9180   -0.0369 H         1 DAB         0.0439 
     39 H4         -4.2220    0.7260    0.7824 H         1 DAB         0.0439 
     40 H5         -3.2652    2.0811    0.0931 H         1 DAB         0.0439 
     41 H6         -3.1961    1.7379    1.8550 H         1 DAB         0.0439 
     42 H7         -3.1307   -0.7612   -0.9465 H         1 DAB         0.0439 
     43 H8         -1.3392   -0.8351   -1.0548 H         1 DAB         0.0439 
     44 H9         -2.2062    0.6664   -1.5244 H         1 DAB         0.0439 
     45 H10        -3.9738   -3.3883    5.1885 H         1 DAB         0.1630 
     46 H11        -3.6761   -3.9474    7.6095 H         1 DAB         0.0284 
     47 H12         1.0920   -1.4799    7.3019 H         1 DAB         0.4311 
     48 H13         0.3808   -2.2948    8.8704 H         1 DAB         0.4311 
     49 H14        -0.3794   -4.4965    3.5803 H         1 DAB         0.1544 
     50 H15        -0.5447   -6.9577    3.5834 H         1 DAB         0.1443 
     51 H16        -2.5239   -8.0783    2.6147 H         1 DAB         0.1406 
     52 H17        -4.9063   -6.7432    0.4373 H         1 DAB         0.4686 
     53 H18        -7.8708   -3.8548    4.1173 H         1 DAB         0.1620 
     54 H19        -7.2832   -4.2613    6.4933 H         1 DAB         0.1498 
     55 H20        -5.9537   -6.2611    7.1175 H         1 DAB         0.1620 
     56 H56        -0.1281   -1.4897    5.2621 H         1 DAB         0.0000 
@<TRIPOS>BOND
     1    1    2 1    
     2    1   36 1    
     3    1   37 1    
     4    1   38 1    
     5    2    3 1    
     6    2    4 1    
     7    2    5 1    
     8    3   39 1    
     9    3   40 1    
    10    3   41 1    
    11    4   42 1    
    12    4   43 1    
    13    4   44 1    
    14    5    9 1    
    15    5    6 2    
    16    6    7 1    
    17    7    8 2    
    18    7   17 1    
    19    8    9 1    
    20    8   10 1    
    21   10   15 ar   
    22   10   11 ar   
    23   11   12 ar   
    24   11   45 1    
    25   12   13 ar   
    26   12   46 1    
    27   13   14 ar   
    28   14   15 ar   
    29   14   16 1    
    30   15   56 1    
    31   16   47 1    
    32   16   48 1    
    33   17   22 ar   
    34   17   18 ar   
    35   18   19 ar   
    36   18   49 1    
    37   19   20 ar   
    38   19   50 1    
    39   20   21 ar   
    40   20   51 1    
    41   21   22 ar   
    42   21   24 1    
    43   22   23 1    
    44   24   25 1    
    45   24   52 1    
    46   25   26 2    
    47   25   27 2    
    48   25   28 1    
    49   28   33 ar   
    50   28   29 ar   
    51   29   30 ar   
    52   29   35 1    
    53   30   31 ar   
    54   30   53 1    
    55   31   32 ar   
    56   31   54 1    
    57   32   33 ar   
    58   32   55 1    
    59   33   34 1    
@<TRIPOS>SUBSTRUCTURE
     1 DAB         1 GROUP             0       ****    0 ROOT    
