@<TRIPOS>MOLECULE
[5-[4-[3-chloro-4-[(3-fluorophenyl)methoxy]anilino]quinazolin-6-yl]-2-furyl]methyl-(2-methylsulfonylethyl)ammonium
   67    71     1     0     0
SMALL
USER_CHARGES

@<TRIPOS>ATOM
      1 C1         22.6040   34.4870   31.1410 C.3       1 FMM        -0.4040
      2 S2         24.0360   33.4650   31.3500 S.o2      1 FMM         1.3572
      3 O3         25.0530   34.2040   32.0670 O.2       1 FMM        -0.6189
      4 O4         24.5430   33.0770   30.0530 O.2       1 FMM        -0.6189
      5 C5         23.5870   31.9800   32.2910 C.3       1 FMM        -0.3397
      6 C6         22.0610   31.8360   32.3240 C.3       1 FMM         0.1408
      7 N7         21.5690   32.1840   33.6650 N.4       1 FMM        -0.7655
      8 C8         20.9140   31.0190   34.2650 C.3       1 FMM         0.1105
      9 C9         19.4160   31.2080   34.2230 C.ar      1 FMM         0.0807
     10 C10        18.6740   30.9770   33.1210 C.ar      1 FMM        -0.1584
     11 C11        17.4450   31.2370   33.4210 C.ar      1 FMM        -0.2769
     12 C12        17.4090   31.6450   34.7310 C.ar      1 FMM         0.4052
     13 O13        18.6550   31.6530   35.3630 O.3       1 FMM        -0.3440
     14 C14        16.1760   32.0580   35.4070 C.ar      1 FMM        -0.1999
     15 C15        14.9580   31.9860   34.7350 C.ar      1 FMM        -0.0796
     16 C16        13.8070   32.4020   35.3590 C.ar      1 FMM        -0.1727
     17 C17        13.8490   32.8900   36.6640 C.ar      1 FMM         0.4572
     18 N18        12.6830   33.3050   37.2760 N.ar      1 FMM        -0.7001
     19 C19        12.7080   33.7900   38.5680 C.ar      1 FMM         0.6867
     20 N20        13.8990   33.8630   39.2600 N.ar      1 FMM        -0.7337
     21 C21        15.0770   33.4520   38.6680 C.ar      1 FMM         0.6924
     22 N22        16.2820   33.5270   39.3660 N.pl3     1 FMM        -0.7269
     23 C23        16.3320   33.8430   40.7350 C.ar      1 FMM         0.1239
     24 C24        17.1180   34.9090   41.1780 C.ar      1 FMM        -0.1120
     25 C25        17.1640   35.2150   42.5350 C.ar      1 FMM        -0.1345
     26 C26        16.4280   34.4570   43.4380 C.ar      1 FMM         0.0979
     27 O27        16.4460   34.7470   44.8280 O.3       1 FMM        -0.3182
     28 C28        17.0650   36.0020   45.1430 C.3       1 FMM         0.1759
     29 C29        16.0850   37.1810   44.9840 C.ar      1 FMM        -0.0747
     30 C30        16.5190   38.4620   45.2460 C.ar      1 FMM        -0.1184
     31 C31        15.6530   39.5270   45.1020 C.ar      1 FMM        -0.1075
     32 C32        14.3540   39.3120   44.6930 C.ar      1 FMM        -0.1510
     33 C33        13.9160   38.0360   44.4290 C.ar      1 FMM         0.1246
     34 F34        12.6790   37.8370   44.0350 F         1 FMM        -0.1367
     35 C35        14.7720   36.9660   44.5730 C.ar      1 FMM        -0.1429
     36 C36        15.6650   33.4150   42.9990 C.ar      1 FMM         0.0279
     37 CL3        14.7840   32.5140   44.1280 Cl        1 FMM        -0.0586
     38 C38        15.6070   33.0980   41.6600 C.ar      1 FMM        -0.1603
     39 C39        15.0530   32.9590   37.3490 C.ar      1 FMM        -0.2961
     40 C40        16.2200   32.5450   36.7310 C.ar      1 FMM        -0.0251
     41 H11A       21.8300   33.9266   30.5961 H         1 FMM         0.1364
     42 H12        22.8759   35.3868   30.5696 H         1 FMM         0.1364
     43 H13        22.2170   34.7821   32.1275 H         1 FMM         0.1364
     44 H51        24.0280   31.0942   31.8105 H         1 FMM         0.1266
     45 H52        23.9688   32.0679   33.3189 H         1 FMM         0.1266
     46 H61        21.6128   32.5116   31.5805 H         1 FMM         0.1165
     47 H62        21.7855   30.7974   32.0888 H         1 FMM         0.1165
     48 HN7        22.4145   32.4940   34.2967 H         1 FMM         0.4530
     49 H81        21.1859   30.1146   33.7010 H         1 FMM         0.1222
     50 H82        21.2414   30.9119   35.3097 H         1 FMM         0.1222
     51 H10        19.0180   30.6310   32.1320 H         1 FMM         0.1705
     52 H11        16.6070   31.1330   32.7120 H         1 FMM         0.1900
     53 H15        14.9050   31.5980   33.7040 H         1 FMM         0.1432
     54 H16        12.8500   32.3440   34.8130 H         1 FMM         0.1698
     55 H19        11.7720   34.1210   39.0500 H         1 FMM         0.0720
     56 H22        17.2320   33.3361   38.8454 H         1 FMM         0.4294
     57 H24        17.7010   35.5080   40.4580 H         1 FMM         0.1522
     58 H25        17.7820   36.0560   42.8940 H         1 FMM         0.1537
     59 H281       17.4183   35.9854   46.1846 H         1 FMM         0.0448
     60 H282       17.9181   36.1695   44.4691 H         1 FMM         0.0448
     61 H30        17.5590   38.6350   45.5710 H         1 FMM         0.1403
     62 H31        16.0000   40.5520   45.3140 H         1 FMM         0.1419
     63 H32        13.6630   40.1640   44.5770 H         1 FMM         0.1533
     64 H35        14.4090   35.9460   44.3610 H         1 FMM         0.1503
     65 H38        14.9830   32.2510   41.3300 H         1 FMM         0.1446
     66 H40        17.1720   32.6020   37.2860 H         1 FMM         0.1481
     67 H67        20.8469   33.0102   33.5877 H         1 FMM         0.4530
@<TRIPOS>BOND
     1    1    2 1
     2    1   41 1
     3    1   42 1
     4    1   43 1
     5    2    3 2
     6    2    4 2
     7    2    5 1
     8    5    6 1
     9    5   44 1
    10    5   45 1
    11    6    7 1
    12    6   46 1
    13    6   47 1
    14    7    8 1
    15    7   48 1
    16    7   67 1
    17    8    9 1
    18    8   49 1
    19    8   50 1
    20    9   10 ar
    21    9   13 ar
    22   10   11 ar
    23   10   51 1
    24   11   12 ar
    25   11   52 1
    26   12   13 ar
    27   12   14 1
    28   14   15 ar
    29   14   40 ar
    30   15   16 ar
    31   15   53 1
    32   16   17 ar
    33   16   54 1
    34   17   18 ar
    35   17   39 ar
    36   18   19 ar
    37   19   20 ar
    38   19   55 1
    39   20   21 ar
    40   21   22 1
    41   21   39 ar
    42   22   23 1
    43   22   56 1
    44   23   24 ar
    45   23   38 ar
    46   24   25 ar
    47   24   57 1
    48   25   26 ar
    49   25   58 1
    50   26   27 1
    51   26   36 ar
    52   27   28 1
    53   28   29 1
    54   28   59 1
    55   28   60 1
    56   29   30 ar
    57   29   35 ar
    58   30   31 ar
    59   30   61 1
    60   31   32 ar
    61   31   62 1
    62   32   33 ar
    63   32   63 1
    64   33   34 1
    65   33   35 ar
    66   35   64 1
    67   36   37 1
    68   36   38 ar
    69   38   65 1
    70   39   40 ar
    71   40   66 1
@<TRIPOS>SUBSTRUCTURE
     1 FMM         1 GROUP   0 A     ****
