@<TRIPOS>MOLECULE
~{N}-[3-chloro-4-[(3-fluorophenyl)methoxy]phenyl]-6-[5-[(2-methylsulfonylethylamino)methyl]-2-furyl]quinazolin-4-amine
67   71    1
SMALL
USER_CHARGES


@<TRIPOS>ATOM
      1 C1          2.8506  -11.3702   -1.0877 C.3       1 LAP        -0.3611 
      2 S1          3.2008  -10.0955   -2.2736 S.o2      1 LAP         1.3300 
      3 O1          2.5505  -10.4562   -3.5182 O.2       1 LAP        -0.6497 
      4 O2          4.6239   -9.8228   -2.2251 O.2       1 LAP        -0.6497 
      5 C2          2.3585   -8.6927   -1.6101 C.3       1 LAP        -0.3273 
      6 C3          2.5220   -7.4588   -2.4767 C.3       1 LAP         0.1953 
      7 N1          1.8258   -6.3040   -1.9259 N.4       1 LAP        -0.8224 
      8 C4          1.9979   -5.1512   -2.7666 C.3       1 LAP         0.1361 
      9 C5          1.3037   -3.9715   -2.2312 C.2       1 LAP         0.2446 
     10 C6          0.0344   -3.4694   -2.4006 C.2       1 LAP        -0.2329 
     11 C7         -0.0332   -2.2969   -1.6108 C.2       1 LAP        -0.2458 
     12 C8          1.1996   -2.1662   -1.0148 C.2       1 LAP         0.2973 
     13 O3          2.0203   -3.1829   -1.3879 O.3       1 LAP        -0.3614 
     14 C9          1.7781   -1.2046   -0.1090 C.ar      1 LAP        -0.1323 
     15 C10         1.0259   -0.1228    0.3350 C.ar      1 LAP        -0.0802 
     16 C11         1.5879    0.8085    1.2132 C.ar      1 LAP        -0.1796 
     17 C12         2.8996    0.6850    1.6650 C.ar      1 LAP         0.4386 
     18 C13         3.6493   -0.4117    1.2094 C.ar      1 LAP        -0.2903 
     19 C14         3.0913   -1.3524    0.3263 C.ar      1 LAP        -0.0772 
     20 C15         4.9553   -0.5013    1.6825 C.ar      1 LAP         0.7090 
     21 N2          5.5107    0.3871    2.5281 N.ar      1 LAP        -0.7524 
     22 C16         4.7000    1.3925    2.8954 C.ar      1 LAP         0.6680 
     23 N3          3.4231    1.5906    2.5098 N.ar      1 LAP        -0.7056 
     24 N4          5.7734   -1.5812    1.2667 N.pl3     1 LAP        -0.7607 
     25 C17         6.8294   -2.2643    1.8904 C.ar      1 LAP         0.1646 
     26 C18         7.8468   -2.8277    1.1203 C.ar      1 LAP        -0.1651 
     27 C19         8.8963   -3.5062    1.7398 C.ar      1 LAP        -0.1272 
     28 C20         8.9283   -3.6214    3.1296 C.ar      1 LAP         0.0785 
     29 C21         7.9109   -3.0580    3.8997 C.ar      1 LAP         0.0334 
     30 C22         6.8614   -2.3795    3.2801 C.ar      1 LAP        -0.1275 
     31 Cl1         7.9256   -3.1856    5.6201 Cl        1 LAP        -0.0662 
     32 O4          9.9665   -4.2886    3.7083 O.3       1 LAP        -0.3216 
     33 C23        10.1403   -5.6563    3.3445 C.3       1 LAP         0.1743 
     34 C24        10.7494   -6.3901    4.5002 C.ar      1 LAP        -0.0678 
     35 C25        12.1365   -6.4805    4.6159 C.ar      1 LAP        -0.1179 
     36 C26        12.7035   -7.1648    5.6911 C.ar      1 LAP        -0.1096 
     37 C27        11.8834   -7.7587    6.6505 C.ar      1 LAP        -0.1556 
     38 C28        10.4962   -7.6683    6.5346 C.ar      1 LAP         0.1205 
     39 C29         9.9292   -6.9840    5.4594 C.ar      1 LAP        -0.1431 
     40 F1          9.7081   -8.2384    7.4556 F         1 LAP        -0.1415 
     41 H1          3.3327  -11.1229   -0.1304 H         1 LAP         0.1178 
     42 H2          3.2392  -12.3309   -1.4565 H         1 LAP         0.1178 
     43 H3          1.7630  -11.4463   -0.9416 H         1 LAP         0.1178 
     44 H4          1.2837   -8.9135   -1.5319 H         1 LAP         0.1159 
     45 H5          2.7591   -8.4628   -0.6118 H         1 LAP         0.1159 
     46 H6          3.5897   -7.2072   -2.5587 H         1 LAP         0.0527 
     47 H7          2.1142   -7.6578   -3.4788 H         1 LAP         0.0527 
     48 H8          0.7514   -6.5267   -1.8474 H         1 LAP         0.3662 
     49 H9          3.0687   -4.9127   -2.8471 H         1 LAP         0.0578 
     50 H10         1.5933   -5.3634   -3.7672 H         1 LAP         0.0578 
     51 H11        -0.7466   -3.8929   -3.0159 H         1 LAP         0.1706 
     52 H12        -0.8783   -1.6333   -1.4936 H         1 LAP         0.1602 
     53 H13        -0.0025    0.0142    0.0088 H         1 LAP         0.1525 
     54 H14         0.9780    1.6463    1.5460 H         1 LAP         0.1593 
     55 H15         3.6726   -2.2021   -0.0265 H         1 LAP         0.1388 
     56 H16         5.1159    2.1256    3.5759 H         1 LAP         0.0574 
     57 H17         5.6227   -2.0358    0.2764 H         1 LAP         0.4476 
     58 H18         7.8322   -2.7426    0.0368 H         1 LAP         0.1367 
     59 H19         9.6860   -3.9421    1.1337 H         1 LAP         0.1467 
     60 H20         6.0661   -1.9376    3.8768 H         1 LAP         0.1660 
     61 H21         9.1633   -6.0968    3.0967 H         1 LAP         0.0455 
     62 H22        10.8044   -5.7216    2.4700 H         1 LAP         0.0455 
     63 H23        12.7838   -6.0208    3.8738 H         1 LAP         0.1428 
     64 H24        13.7836   -7.2347    5.7817 H         1 LAP         0.1398 
     65 H25        12.3237   -8.2922    7.4875 H         1 LAP         0.1494 
     66 H26         8.8475   -6.9190    5.3775 H         1 LAP         0.1501 
     67 H67         2.2269   -6.0760   -0.9273 H         1 LAP         0.0000 
@<TRIPOS>BOND
     1    1    2 1    
     2    1   41 1    
     3    1   42 1    
     4    1   43 1    
     5    2    3 2    
     6    2    4 2    
     7    2    5 1    
     8    5    6 1    
     9    5   44 1    
    10    5   45 1    
    11    6    7 1    
    12    6   46 1    
    13    6   47 1    
    14    7    8 1    
    15    7   48 1    
    16    7   67 1    
    17    8    9 1    
    18    8   49 1    
    19    8   50 1    
    20    9   13 1    
    21    9   10 2    
    22   10   11 1    
    23   10   51 1    
    24   11   12 2    
    25   11   52 1    
    26   12   13 1    
    27   12   14 1    
    28   14   19 ar   
    29   14   15 ar   
    30   15   16 ar   
    31   15   53 1    
    32   16   17 ar   
    33   16   54 1    
    34   17   23 ar   
    35   17   18 ar   
    36   18   19 ar   
    37   18   20 ar   
    38   19   55 1    
    39   20   21 ar   
    40   20   24 1    
    41   21   22 ar   
    42   22   23 ar   
    43   22   56 1    
    44   24   25 1    
    45   24   57 1    
    46   25   30 ar   
    47   25   26 ar   
    48   26   27 ar   
    49   26   58 1    
    50   27   28 ar   
    51   27   59 1    
    52   28   29 ar   
    53   28   32 1    
    54   29   30 ar   
    55   29   31 1    
    56   30   60 1    
    57   32   33 1    
    58   33   34 1    
    59   33   61 1    
    60   33   62 1    
    61   34   39 ar   
    62   34   35 ar   
    63   35   36 ar   
    64   35   63 1    
    65   36   37 ar   
    66   36   64 1    
    67   37   38 ar   
    68   37   65 1    
    69   38   39 ar   
    70   38   40 1    
    71   39   66 1    
@<TRIPOS>SUBSTRUCTURE
     1 LAP         1 GROUP             0       ****    0 ROOT    
@<TRIPOS>MOLECULE
~{N}-[3-chloro-4-[(3-fluorophenyl)methoxy]phenyl]-6-[5-[(2-methylsulfonylethylamino)methyl]-2-furyl]quinazolin-4-amine
66   70    1
SMALL
USER_CHARGES


@<TRIPOS>ATOM
      1 C1          2.8506  -11.3702   -1.0877 C.3       1 LAP        -0.3611 
      2 S1          3.2008  -10.0955   -2.2736 S.o2      1 LAP         1.3300 
      3 O1          2.5505  -10.4562   -3.5182 O.2       1 LAP        -0.6497 
      4 O2          4.6239   -9.8228   -2.2251 O.2       1 LAP        -0.6497 
      5 C2          2.3585   -8.6927   -1.6101 C.3       1 LAP        -0.3273 
      6 C3          2.5220   -7.4588   -2.4767 C.3       1 LAP         0.1953 
      7 N1          1.8258   -6.3040   -1.9259 N.3       1 LAP        -0.8224 
      8 C4          1.9979   -5.1512   -2.7666 C.3       1 LAP         0.1361 
      9 C5          1.3037   -3.9715   -2.2312 C.2       1 LAP         0.2446 
     10 C6          0.0344   -3.4694   -2.4006 C.2       1 LAP        -0.2329 
     11 C7         -0.0332   -2.2969   -1.6108 C.2       1 LAP        -0.2458 
     12 C8          1.1996   -2.1662   -1.0148 C.2       1 LAP         0.2973 
     13 O3          2.0203   -3.1829   -1.3879 O.3       1 LAP        -0.3614 
     14 C9          1.7781   -1.2046   -0.1090 C.ar      1 LAP        -0.1323 
     15 C10         1.0259   -0.1228    0.3350 C.ar      1 LAP        -0.0802 
     16 C11         1.5879    0.8085    1.2132 C.ar      1 LAP        -0.1796 
     17 C12         2.8996    0.6850    1.6650 C.ar      1 LAP         0.4386 
     18 C13         3.6493   -0.4117    1.2094 C.ar      1 LAP        -0.2903 
     19 C14         3.0913   -1.3524    0.3263 C.ar      1 LAP        -0.0772 
     20 C15         4.9553   -0.5013    1.6825 C.ar      1 LAP         0.7090 
     21 N2          5.5107    0.3871    2.5281 N.ar      1 LAP        -0.7524 
     22 C16         4.7000    1.3925    2.8954 C.ar      1 LAP         0.6680 
     23 N3          3.4231    1.5906    2.5098 N.ar      1 LAP        -0.7056 
     24 N4          5.7734   -1.5812    1.2667 N.pl3     1 LAP        -0.7607 
     25 C17         6.8294   -2.2643    1.8904 C.ar      1 LAP         0.1646 
     26 C18         7.8468   -2.8277    1.1203 C.ar      1 LAP        -0.1651 
     27 C19         8.8963   -3.5062    1.7398 C.ar      1 LAP        -0.1272 
     28 C20         8.9283   -3.6214    3.1296 C.ar      1 LAP         0.0785 
     29 C21         7.9109   -3.0580    3.8997 C.ar      1 LAP         0.0334 
     30 C22         6.8614   -2.3795    3.2801 C.ar      1 LAP        -0.1275 
     31 Cl1         7.9256   -3.1856    5.6201 Cl        1 LAP        -0.0662 
     32 O4          9.9665   -4.2886    3.7083 O.3       1 LAP        -0.3216 
     33 C23        10.1403   -5.6563    3.3445 C.3       1 LAP         0.1743 
     34 C24        10.7494   -6.3901    4.5002 C.ar      1 LAP        -0.0678 
     35 C25        12.1365   -6.4805    4.6159 C.ar      1 LAP        -0.1179 
     36 C26        12.7035   -7.1648    5.6911 C.ar      1 LAP        -0.1096 
     37 C27        11.8834   -7.7587    6.6505 C.ar      1 LAP        -0.1556 
     38 C28        10.4962   -7.6683    6.5346 C.ar      1 LAP         0.1205 
     39 C29         9.9292   -6.9840    5.4594 C.ar      1 LAP        -0.1431 
     40 F1          9.7081   -8.2384    7.4556 F         1 LAP        -0.1415 
     41 H1          3.3327  -11.1229   -0.1304 H         1 LAP         0.1178 
     42 H2          3.2392  -12.3309   -1.4565 H         1 LAP         0.1178 
     43 H3          1.7630  -11.4463   -0.9416 H         1 LAP         0.1178 
     44 H4          1.2837   -8.9135   -1.5319 H         1 LAP         0.1159 
     45 H5          2.7591   -8.4628   -0.6118 H         1 LAP         0.1159 
     46 H6          3.5897   -7.2072   -2.5587 H         1 LAP         0.0527 
     47 H7          2.1142   -7.6578   -3.4788 H         1 LAP         0.0527 
     48 H8          0.7514   -6.5267   -1.8474 H         1 LAP         0.3662 
     49 H9          3.0687   -4.9127   -2.8471 H         1 LAP         0.0578 
     50 H10         1.5933   -5.3634   -3.7672 H         1 LAP         0.0578 
     51 H11        -0.7466   -3.8929   -3.0159 H         1 LAP         0.1706 
     52 H12        -0.8783   -1.6333   -1.4936 H         1 LAP         0.1602 
     53 H13        -0.0025    0.0142    0.0088 H         1 LAP         0.1525 
     54 H14         0.9780    1.6463    1.5460 H         1 LAP         0.1593 
     55 H15         3.6726   -2.2021   -0.0265 H         1 LAP         0.1388 
     56 H16         5.1159    2.1256    3.5759 H         1 LAP         0.0574 
     57 H17         5.6227   -2.0358    0.2764 H         1 LAP         0.4476 
     58 H18         7.8322   -2.7426    0.0368 H         1 LAP         0.1367 
     59 H19         9.6860   -3.9421    1.1337 H         1 LAP         0.1467 
     60 H20         6.0661   -1.9376    3.8768 H         1 LAP         0.1660 
     61 H21         9.1633   -6.0968    3.0967 H         1 LAP         0.0455 
     62 H22        10.8044   -5.7216    2.4700 H         1 LAP         0.0455 
     63 H23        12.7838   -6.0208    3.8738 H         1 LAP         0.1428 
     64 H24        13.7836   -7.2347    5.7817 H         1 LAP         0.1398 
     65 H25        12.3237   -8.2922    7.4875 H         1 LAP         0.1494 
     66 H26         8.8475   -6.9190    5.3775 H         1 LAP         0.1501 
@<TRIPOS>BOND
     1    1    2 1    
     2    1   41 1    
     3    1   42 1    
     4    1   43 1    
     5    2    3 2    
     6    2    4 2    
     7    2    5 1    
     8    5    6 1    
     9    5   44 1    
    10    5   45 1    
    11    6    7 1    
    12    6   46 1    
    13    6   47 1    
    14    7    8 1    
    15    7   48 1    
    16    8    9 1    
    17    8   49 1    
    18    8   50 1    
    19    9   13 1    
    20    9   10 2    
    21   10   11 1    
    22   10   51 1    
    23   11   12 2    
    24   11   52 1    
    25   12   13 1    
    26   12   14 1    
    27   14   19 ar   
    28   14   15 ar   
    29   15   16 ar   
    30   15   53 1    
    31   16   17 ar   
    32   16   54 1    
    33   17   23 ar   
    34   17   18 ar   
    35   18   19 ar   
    36   18   20 ar   
    37   19   55 1    
    38   20   21 ar   
    39   20   24 1    
    40   21   22 ar   
    41   22   23 ar   
    42   22   56 1    
    43   24   25 1    
    44   24   57 1    
    45   25   30 ar   
    46   25   26 ar   
    47   26   27 ar   
    48   26   58 1    
    49   27   28 ar   
    50   27   59 1    
    51   28   29 ar   
    52   28   32 1    
    53   29   30 ar   
    54   29   31 1    
    55   30   60 1    
    56   32   33 1    
    57   33   34 1    
    58   33   61 1    
    59   33   62 1    
    60   34   39 ar   
    61   34   35 ar   
    62   35   36 ar   
    63   35   63 1    
    64   36   37 ar   
    65   36   64 1    
    66   37   38 ar   
    67   37   65 1    
    68   38   39 ar   
    69   38   40 1    
    70   39   66 1    
@<TRIPOS>SUBSTRUCTURE
     1 LAP         1 GROUP             0       ****    0 ROOT    
@<TRIPOS>MOLECULE
~{N}-[3-chloro-4-[(3-fluorophenyl)methoxy]phenyl]-6-[5-[(2-methylsulfonylethylamino)methyl]-2-furyl]quinazolin-4-amine
68   72    1
SMALL
USER_CHARGES


@<TRIPOS>ATOM
      1 C1          2.8503  -11.3698   -1.0891 C.3       1 LAP        -0.3611 
      2 S1          3.2007  -10.0950   -2.2748 S.o2      1 LAP         1.3300 
      3 O1          2.5506  -10.4556   -3.5196 O.2       1 LAP        -0.6497 
      4 O2          4.6239   -9.8224   -2.2261 O.2       1 LAP        -0.6497 
      5 C2          2.3584   -8.6923   -1.6113 C.3       1 LAP        -0.3273 
      6 C3          2.5222   -7.4583   -2.4777 C.3       1 LAP         0.1953 
      7 N1          1.8259   -6.3035   -1.9269 N.4       1 LAP        -0.8224 
      8 C4          1.9983   -5.1506   -2.7675 C.3       1 LAP         0.1361 
      9 C5          1.3040   -3.9709   -2.2320 C.2       1 LAP         0.2446 
     10 C6          0.0348   -3.4687   -2.4016 C.2       1 LAP        -0.2329 
     11 C7         -0.0328   -2.2963   -1.6117 C.2       1 LAP        -0.2458 
     12 C8          1.1999   -2.1657   -1.0155 C.2       1 LAP         0.2973 
     13 O3          2.0206   -3.1825   -1.3885 O.3       1 LAP        -0.3614 
     14 C9          1.7783   -1.2043   -0.1094 C.ar      1 LAP        -0.1323 
     15 C10         1.0260   -0.1225    0.3346 C.ar      1 LAP        -0.0802 
     16 C11         1.5879    0.8085    1.2133 C.ar      1 LAP        -0.1796 
     17 C12         2.8996    0.6849    1.6651 C.ar      1 LAP         0.4386 
     18 C13         3.6493   -0.4117    1.2094 C.ar      1 LAP        -0.2903 
     19 C14         3.0914   -1.3522    0.3260 C.ar      1 LAP        -0.0772 
     20 C15         4.9553   -0.5014    1.6826 C.ar      1 LAP         0.7090 
     21 N2          5.5107    0.3871    2.5281 N.2       1 LAP        -0.7524 
     22 C16         4.7000    1.3924    2.8955 C.ar      1 LAP         0.6680 
     23 N3          3.4230    1.5905    2.5099 N.pl3     1 LAP        -0.7056 
     24 N4          5.7734   -1.5812    1.2667 N.pl3     1 LAP        -0.7607 
     25 C17         6.8294   -2.2643    1.8904 C.ar      1 LAP         0.1646 
     26 C18         7.8468   -2.8276    1.1202 C.ar      1 LAP        -0.1651 
     27 C19         8.8963   -3.5062    1.7397 C.ar      1 LAP        -0.1272 
     28 C20         8.9283   -3.6215    3.1295 C.ar      1 LAP         0.0785 
     29 C21         7.9109   -3.0582    3.8996 C.ar      1 LAP         0.0334 
     30 C22         6.8614   -2.3796    3.2801 C.ar      1 LAP        -0.1275 
     31 Cl1         7.9256   -3.1859    5.6200 Cl        1 LAP        -0.0662 
     32 O4          9.9665   -4.2887    3.7081 O.3       1 LAP        -0.3216 
     33 C23        10.1404   -5.6564    3.3442 C.3       1 LAP         0.1743 
     34 C24        10.7495   -6.3902    4.4999 C.ar      1 LAP        -0.0678 
     35 C25        12.1366   -6.4806    4.6156 C.ar      1 LAP        -0.1179 
     36 C26        12.7036   -7.1650    5.6907 C.ar      1 LAP        -0.1096 
     37 C27        11.8835   -7.7590    6.6501 C.ar      1 LAP        -0.1556 
     38 C28        10.4963   -7.6686    6.5342 C.ar      1 LAP         0.1205 
     39 C29         9.9293   -6.9842    5.4590 C.ar      1 LAP        -0.1431 
     40 F1          9.7082   -8.2388    7.4551 F         1 LAP        -0.1415 
     41 H1          3.3323  -11.1227   -0.1318 H         1 LAP         0.1178 
     42 H2          3.2388  -12.3305   -1.4580 H         1 LAP         0.1178 
     43 H3          1.7626  -11.4459   -0.9432 H         1 LAP         0.1178 
     44 H4          1.2836   -8.9130   -1.5333 H         1 LAP         0.1159 
     45 H5          2.7589   -8.4625   -0.6129 H         1 LAP         0.1159 
     46 H6          3.5899   -7.2067   -2.5595 H         1 LAP         0.0527 
     47 H7          2.1145   -7.6572   -3.4799 H         1 LAP         0.0527 
     48 H8          0.7516   -6.5261   -1.8486 H         1 LAP         0.3662 
     49 H9          3.0691   -4.9122   -2.8478 H         1 LAP         0.0578 
     50 H10         1.5938   -5.3626   -3.7682 H         1 LAP         0.0578 
     51 H11        -0.7461   -3.8921   -3.0171 H         1 LAP         0.1706 
     52 H12        -0.8779   -1.6327   -1.4945 H         1 LAP         0.1602 
     53 H13         0.0818   -0.0111    0.0247 H         1 LAP         0.1525 
     54 H14         1.0455    1.5859    1.5318 H         1 LAP         0.1593 
     55 H15         3.6384   -2.1277    0.0107 H         1 LAP         0.1388 
     56 H16         5.0308    2.0980    3.5222 H         1 LAP         0.0574 
     57 H17         2.8140    2.4403    2.8518 H         1 LAP         0.4476 
     58 H18         7.8322   -2.7424    0.0367 H         1 LAP         0.1367 
     59 H19         9.6861   -3.9420    1.1335 H         1 LAP         0.1467 
     60 H20         6.0661   -1.9378    3.8768 H         1 LAP         0.1660 
     61 H21         9.1634   -6.0968    3.0963 H         1 LAP         0.0455 
     62 H22        10.8045   -5.7216    2.4697 H         1 LAP         0.0455 
     63 H23        12.7839   -6.0208    3.8735 H         1 LAP         0.1428 
     64 H24        13.7837   -7.2349    5.7813 H         1 LAP         0.1398 
     65 H25        12.3238   -8.2925    7.4870 H         1 LAP         0.1494 
     66 H26         8.8476   -6.9193    5.3771 H         1 LAP         0.1501 
     67 H67         5.6228   -2.0358    0.2764 H         1 LAP         0.0000 
     68 H68         2.2269   -6.0756   -0.9283 H         1 LAP         0.0000 
@<TRIPOS>BOND
     1    1    2 1    
     2    1   41 1    
     3    1   42 1    
     4    1   43 1    
     5    2    3 2    
     6    2    4 2    
     7    2    5 1    
     8    5    6 1    
     9    5   44 1    
    10    5   45 1    
    11    6    7 1    
    12    6   46 1    
    13    6   47 1    
    14    7    8 1    
    15    7   48 1    
    16    7   68 1    
    17    8    9 1    
    18    8   49 1    
    19    8   50 1    
    20    9   13 1    
    21    9   10 2    
    22   10   11 1    
    23   10   51 1    
    24   11   12 2    
    25   11   52 1    
    26   12   13 1    
    27   12   14 1    
    28   14   19 ar   
    29   14   15 ar   
    30   15   53 1    
    31   15   16 ar   
    32   16   54 1    
    33   16   17 ar   
    34   17   18 ar   
    35   17   23 ar   
    36   18   20 ar   
    37   18   19 ar   
    38   19   55 1    
    39   20   24 2    
    40   20   21 ar   
    41   21   22 ar   
    42   22   23 ar   
    43   22   56 1    
    44   23   57 1    
    45   24   25 1    
    46   24   67 1    
    47   25   30 ar   
    48   25   26 ar   
    49   26   27 ar   
    50   26   58 1    
    51   27   28 ar   
    52   27   59 1    
    53   28   29 ar   
    54   28   32 1    
    55   29   30 ar   
    56   29   31 1    
    57   30   60 1    
    58   32   33 1    
    59   33   34 1    
    60   33   61 1    
    61   33   62 1    
    62   34   39 ar   
    63   34   35 ar   
    64   35   36 ar   
    65   35   63 1    
    66   36   37 ar   
    67   36   64 1    
    68   37   38 ar   
    69   37   65 1    
    70   38   39 ar   
    71   38   40 1    
    72   39   66 1    
@<TRIPOS>SUBSTRUCTURE
     1 LAP         1 GROUP             0       ****    0 ROOT    
@<TRIPOS>MOLECULE
~{N}-[3-chloro-4-[(3-fluorophenyl)methoxy]phenyl]-6-[5-[(2-methylsulfonylethylamino)methyl]-2-furyl]quinazolin-4-amine
68   72    1
SMALL
USER_CHARGES


@<TRIPOS>ATOM
      1 C1          2.8503  -11.3698   -1.0891 C.3       1 LAP        -0.3611 
      2 S1          3.2007  -10.0950   -2.2748 S.o2      1 LAP         1.3300 
      3 O1          2.5506  -10.4556   -3.5196 O.2       1 LAP        -0.6497 
      4 O2          4.6239   -9.8224   -2.2261 O.2       1 LAP        -0.6497 
      5 C2          2.3584   -8.6923   -1.6113 C.3       1 LAP        -0.3273 
      6 C3          2.5222   -7.4583   -2.4777 C.3       1 LAP         0.1953 
      7 N1          1.8259   -6.3035   -1.9269 N.4       1 LAP        -0.8224 
      8 C4          1.9983   -5.1506   -2.7675 C.3       1 LAP         0.1361 
      9 C5          1.3040   -3.9709   -2.2320 C.2       1 LAP         0.2446 
     10 C6          0.0348   -3.4687   -2.4016 C.2       1 LAP        -0.2329 
     11 C7         -0.0328   -2.2963   -1.6117 C.2       1 LAP        -0.2458 
     12 C8          1.1999   -2.1657   -1.0155 C.2       1 LAP         0.2973 
     13 O3          2.0206   -3.1825   -1.3885 O.3       1 LAP        -0.3614 
     14 C9          1.7783   -1.2043   -0.1094 C.ar      1 LAP        -0.1323 
     15 C10         1.0260   -0.1225    0.3346 C.ar      1 LAP        -0.0802 
     16 C11         1.5879    0.8085    1.2133 C.ar      1 LAP        -0.1796 
     17 C12         2.8996    0.6849    1.6651 C.ar      1 LAP         0.4386 
     18 C13         3.6493   -0.4117    1.2094 C.ar      1 LAP        -0.2903 
     19 C14         3.0914   -1.3522    0.3260 C.ar      1 LAP        -0.0772 
     20 C15         4.9553   -0.5014    1.6826 C.ar      1 LAP         0.7090 
     21 N2          5.5107    0.3871    2.5281 N.2       1 LAP        -0.7524 
     22 C16         4.7000    1.3924    2.8955 C.ar      1 LAP         0.6680 
     23 N3          3.4230    1.5905    2.5099 N.pl3     1 LAP        -0.7056 
     24 N4          5.7734   -1.5812    1.2667 N.pl3     1 LAP        -0.7607 
     25 C17         5.8110   -2.3415    0.0872 C.ar      1 LAP         0.1646 
     26 C18         6.2282   -3.6718    0.1280 C.ar      1 LAP        -0.1651 
     27 C19         6.2653   -4.4275   -1.0438 C.ar      1 LAP        -0.1272 
     28 C20         5.8852   -3.8527   -2.2566 C.ar      1 LAP         0.0785 
     29 C21         5.4679   -2.5224   -2.2975 C.ar      1 LAP         0.0334 
     30 C22         5.4309   -1.7667   -1.1256 C.ar      1 LAP        -0.1275 
     31 Cl1         4.9925   -1.7865   -3.7837 Cl        1 LAP        -0.0662 
     32 O4          5.9300   -4.6149   -3.3858 O.3       1 LAP        -0.3216 
     33 C23         7.1986   -5.1510   -3.7551 C.3       1 LAP         0.1743 
     34 C24         7.2495   -5.2884   -5.2463 C.ar      1 LAP        -0.0678 
     35 C25         6.8273   -6.4716   -5.8525 C.ar      1 LAP        -0.1179 
     36 C26         6.8761   -6.5999   -7.2406 C.ar      1 LAP        -0.1096 
     37 C27         7.3470   -5.5451   -8.0225 C.ar      1 LAP        -0.1556 
     38 C28         7.7694   -4.3620   -7.4161 C.ar      1 LAP         0.1205 
     39 C29         7.7206   -4.2336   -6.0280 C.ar      1 LAP        -0.1431 
     40 F1          8.2218   -3.3487   -8.1664 F         1 LAP        -0.1415 
     41 H1          3.3323  -11.1227   -0.1318 H         1 LAP         0.1178 
     42 H2          3.2388  -12.3305   -1.4580 H         1 LAP         0.1178 
     43 H3          1.7626  -11.4459   -0.9432 H         1 LAP         0.1178 
     44 H4          1.2836   -8.9130   -1.5333 H         1 LAP         0.1159 
     45 H5          2.7589   -8.4625   -0.6129 H         1 LAP         0.1159 
     46 H6          3.5899   -7.2067   -2.5595 H         1 LAP         0.0527 
     47 H7          2.1145   -7.6572   -3.4799 H         1 LAP         0.0527 
     48 H8          0.7516   -6.5261   -1.8486 H         1 LAP         0.3662 
     49 H9          3.0691   -4.9122   -2.8478 H         1 LAP         0.0578 
     50 H10         1.5938   -5.3626   -3.7682 H         1 LAP         0.0578 
     51 H11        -0.7461   -3.8921   -3.0171 H         1 LAP         0.1706 
     52 H12        -0.8779   -1.6327   -1.4945 H         1 LAP         0.1602 
     53 H13         0.0818   -0.0111    0.0247 H         1 LAP         0.1525 
     54 H14         1.0455    1.5859    1.5318 H         1 LAP         0.1593 
     55 H15         3.6384   -2.1277    0.0107 H         1 LAP         0.1388 
     56 H16         5.0308    2.0980    3.5222 H         1 LAP         0.0574 
     57 H17         2.8140    2.4403    2.8518 H         1 LAP         0.4476 
     58 H18         6.5253   -4.1298    1.0679 H         1 LAP         0.1367 
     59 H19         6.5908   -5.4636   -1.0046 H         1 LAP         0.1467 
     60 H20         5.1052   -0.7289   -1.1525 H         1 LAP         0.1660 
     61 H21         7.9958   -4.4734   -3.4159 H         1 LAP         0.0455 
     62 H22         7.3308   -6.1369   -3.2854 H         1 LAP         0.0455 
     63 H23         6.4584   -7.2988   -5.2519 H         1 LAP         0.1428 
     64 H24         6.5467   -7.5209   -7.7129 H         1 LAP         0.1398 
     65 H25         7.3860   -5.6442   -9.1031 H         1 LAP         0.1494 
     66 H26         8.0519   -3.3081   -5.5646 H         1 LAP         0.1501 
     67 H67         6.5591   -1.9648    1.9342 H         1 LAP         0.0000 
     68 H68         2.2269   -6.0756   -0.9283 H         1 LAP         0.0000 
@<TRIPOS>BOND
     1    1    2 1    
     2    1   41 1    
     3    1   42 1    
     4    1   43 1    
     5    2    3 2    
     6    2    4 2    
     7    2    5 1    
     8    5    6 1    
     9    5   44 1    
    10    5   45 1    
    11    6    7 1    
    12    6   46 1    
    13    6   47 1    
    14    7    8 1    
    15    7   48 1    
    16    7   68 1    
    17    8    9 1    
    18    8   49 1    
    19    8   50 1    
    20    9   13 1    
    21    9   10 2    
    22   10   11 1    
    23   10   51 1    
    24   11   12 2    
    25   11   52 1    
    26   12   13 1    
    27   12   14 1    
    28   14   19 ar   
    29   14   15 ar   
    30   15   53 1    
    31   15   16 ar   
    32   16   54 1    
    33   16   17 ar   
    34   17   18 ar   
    35   17   23 ar   
    36   18   20 ar   
    37   18   19 ar   
    38   19   55 1    
    39   20   24 2    
    40   20   21 ar   
    41   21   22 ar   
    42   22   23 ar   
    43   22   56 1    
    44   23   57 1    
    45   24   25 1    
    46   24   67 1    
    47   25   30 ar   
    48   25   26 ar   
    49   26   27 ar   
    50   26   58 1    
    51   27   28 ar   
    52   27   59 1    
    53   28   29 ar   
    54   28   32 1    
    55   29   30 ar   
    56   29   31 1    
    57   30   60 1    
    58   32   33 1    
    59   33   34 1    
    60   33   61 1    
    61   33   62 1    
    62   34   39 ar   
    63   34   35 ar   
    64   35   36 ar   
    65   35   63 1    
    66   36   37 ar   
    67   36   64 1    
    68   37   38 ar   
    69   37   65 1    
    70   38   39 ar   
    71   38   40 1    
    72   39   66 1    
@<TRIPOS>SUBSTRUCTURE
     1 LAP         1 GROUP             0       ****    0 ROOT    
@<TRIPOS>MOLECULE
~{N}-[3-chloro-4-[(3-fluorophenyl)methoxy]phenyl]-6-[5-[(2-methylsulfonylethylamino)methyl]-2-furyl]quinazolin-4-amine
68   72    1
SMALL
USER_CHARGES


@<TRIPOS>ATOM
      1 C1          2.8506  -11.3702   -1.0877 C.3       1 LAP        -0.3611 
      2 S1          3.2008  -10.0955   -2.2736 S.o2      1 LAP         1.3300 
      3 O1          2.5505  -10.4562   -3.5182 O.2       1 LAP        -0.6497 
      4 O2          4.6239   -9.8228   -2.2251 O.2       1 LAP        -0.6497 
      5 C2          2.3585   -8.6927   -1.6101 C.3       1 LAP        -0.3273 
      6 C3          2.5220   -7.4588   -2.4767 C.3       1 LAP         0.1953 
      7 N1          1.8258   -6.3040   -1.9259 N.4       1 LAP        -0.8224 
      8 C4          1.9979   -5.1512   -2.7666 C.3       1 LAP         0.1361 
      9 C5          1.3037   -3.9715   -2.2312 C.2       1 LAP         0.2446 
     10 C6          0.0344   -3.4694   -2.4006 C.2       1 LAP        -0.2329 
     11 C7         -0.0332   -2.2969   -1.6108 C.2       1 LAP        -0.2458 
     12 C8          1.1996   -2.1662   -1.0148 C.2       1 LAP         0.2973 
     13 O3          2.0203   -3.1829   -1.3879 O.3       1 LAP        -0.3614 
     14 C9          1.7781   -1.2046   -0.1090 C.ar      1 LAP        -0.1323 
     15 C10         1.0259   -0.1228    0.3350 C.ar      1 LAP        -0.0802 
     16 C11         1.5879    0.8085    1.2132 C.ar      1 LAP        -0.1796 
     17 C12         2.8996    0.6850    1.6650 C.ar      1 LAP         0.4386 
     18 C13         3.6493   -0.4117    1.2094 C.ar      1 LAP        -0.2903 
     19 C14         3.0913   -1.3524    0.3263 C.ar      1 LAP        -0.0772 
     20 C15         4.9553   -0.5013    1.6825 C.ar      1 LAP         0.7090 
     21 N2          5.5107    0.3871    2.5281 N.ar      1 LAP        -0.7524 
     22 C16         4.7000    1.3925    2.8954 C.ar      1 LAP         0.6680 
     23 N3          3.4231    1.5906    2.5098 N.pl3     1 LAP        -0.7056 
     24 N4          5.7734   -1.5812    1.2667 N.pl3     1 LAP        -0.7607 
     25 C17         6.8294   -2.2643    1.8904 C.ar      1 LAP         0.1646 
     26 C18         7.8468   -2.8277    1.1203 C.ar      1 LAP        -0.1651 
     27 C19         8.8963   -3.5062    1.7398 C.ar      1 LAP        -0.1272 
     28 C20         8.9283   -3.6214    3.1296 C.ar      1 LAP         0.0785 
     29 C21         7.9109   -3.0580    3.8997 C.ar      1 LAP         0.0334 
     30 C22         6.8614   -2.3795    3.2801 C.ar      1 LAP        -0.1275 
     31 Cl1         7.9256   -3.1856    5.6201 Cl        1 LAP        -0.0662 
     32 O4          9.9665   -4.2886    3.7083 O.3       1 LAP        -0.3216 
     33 C23        10.1403   -5.6563    3.3445 C.3       1 LAP         0.1743 
     34 C24        10.7494   -6.3901    4.5002 C.ar      1 LAP        -0.0678 
     35 C25        12.1365   -6.4805    4.6159 C.ar      1 LAP        -0.1179 
     36 C26        12.7035   -7.1648    5.6911 C.ar      1 LAP        -0.1096 
     37 C27        11.8834   -7.7587    6.6505 C.ar      1 LAP        -0.1556 
     38 C28        10.4962   -7.6683    6.5346 C.ar      1 LAP         0.1205 
     39 C29         9.9292   -6.9840    5.4594 C.ar      1 LAP        -0.1431 
     40 F1          9.7081   -8.2384    7.4556 F         1 LAP        -0.1415 
     41 H1          3.3327  -11.1229   -0.1304 H         1 LAP         0.1178 
     42 H2          3.2392  -12.3309   -1.4565 H         1 LAP         0.1178 
     43 H3          1.7630  -11.4463   -0.9416 H         1 LAP         0.1178 
     44 H4          1.2837   -8.9135   -1.5319 H         1 LAP         0.1159 
     45 H5          2.7591   -8.4628   -0.6118 H         1 LAP         0.1159 
     46 H6          3.5897   -7.2072   -2.5587 H         1 LAP         0.0527 
     47 H7          2.1142   -7.6578   -3.4788 H         1 LAP         0.0527 
     48 H8          0.7514   -6.5267   -1.8474 H         1 LAP         0.3662 
     49 H9          3.0687   -4.9127   -2.8471 H         1 LAP         0.0578 
     50 H10         1.5933   -5.3634   -3.7672 H         1 LAP         0.0578 
     51 H11        -0.7466   -3.8929   -3.0159 H         1 LAP         0.1706 
     52 H12        -0.8783   -1.6333   -1.4936 H         1 LAP         0.1602 
     53 H13        -0.0025    0.0142    0.0088 H         1 LAP         0.1525 
     54 H14         0.9780    1.6463    1.5460 H         1 LAP         0.1593 
     55 H15         3.6726   -2.2021   -0.0265 H         1 LAP         0.1388 
     56 H16         5.1159    2.1256    3.5759 H         1 LAP         0.0574 
     57 H17         5.6227   -2.0358    0.2764 H         1 LAP         0.4476 
     58 H18         7.8322   -2.7426    0.0368 H         1 LAP         0.1367 
     59 H19         9.6860   -3.9421    1.1337 H         1 LAP         0.1467 
     60 H20         6.0661   -1.9376    3.8768 H         1 LAP         0.1660 
     61 H21         9.1633   -6.0968    3.0967 H         1 LAP         0.0455 
     62 H22        10.8044   -5.7216    2.4700 H         1 LAP         0.0455 
     63 H23        12.7838   -6.0208    3.8738 H         1 LAP         0.1428 
     64 H24        13.7836   -7.2347    5.7817 H         1 LAP         0.1398 
     65 H25        12.3237   -8.2922    7.4875 H         1 LAP         0.1494 
     66 H26         8.8475   -6.9190    5.3775 H         1 LAP         0.1501 
     67 H67         2.2269   -6.0760   -0.9273 H         1 LAP         0.0000 
     68 H68         2.8141    2.4405    2.8515 H         1 LAP         0.0000 
@<TRIPOS>BOND
     1    1    2 1    
     2    1   41 1    
     3    1   42 1    
     4    1   43 1    
     5    2    3 2    
     6    2    4 2    
     7    2    5 1    
     8    5    6 1    
     9    5   44 1    
    10    5   45 1    
    11    6    7 1    
    12    6   46 1    
    13    6   47 1    
    14    7    8 1    
    15    7   48 1    
    16    7   67 1    
    17    8    9 1    
    18    8   49 1    
    19    8   50 1    
    20    9   13 1    
    21    9   10 2    
    22   10   11 1    
    23   10   51 1    
    24   11   12 2    
    25   11   52 1    
    26   12   13 1    
    27   12   14 1    
    28   14   19 ar   
    29   14   15 ar   
    30   15   16 ar   
    31   15   53 1    
    32   16   17 ar   
    33   16   54 1    
    34   17   23 ar   
    35   17   18 ar   
    36   18   19 ar   
    37   18   20 ar   
    38   19   55 1    
    39   20   21 ar   
    40   20   24 1    
    41   21   22 ar   
    42   22   23 ar   
    43   22   56 1    
    44   23   68 1    
    45   24   25 1    
    46   24   57 1    
    47   25   30 ar   
    48   25   26 ar   
    49   26   27 ar   
    50   26   58 1    
    51   27   28 ar   
    52   27   59 1    
    53   28   29 ar   
    54   28   32 1    
    55   29   30 ar   
    56   29   31 1    
    57   30   60 1    
    58   32   33 1    
    59   33   34 1    
    60   33   61 1    
    61   33   62 1    
    62   34   39 ar   
    63   34   35 ar   
    64   35   36 ar   
    65   35   63 1    
    66   36   37 ar   
    67   36   64 1    
    68   37   38 ar   
    69   37   65 1    
    70   38   39 ar   
    71   38   40 1    
    72   39   66 1    
@<TRIPOS>SUBSTRUCTURE
     1 LAP         1 GROUP             0       ****    0 ROOT    
@<TRIPOS>MOLECULE
~{N}-[3-chloro-4-[(3-fluorophenyl)methoxy]phenyl]-6-[5-[(2-methylsulfonylethylamino)methyl]-2-furyl]quinazolin-4-amine
67   71    1
SMALL
USER_CHARGES


@<TRIPOS>ATOM
      1 C1          2.8503  -11.3698   -1.0891 C.3       1 LAP        -0.3611 
      2 S1          3.2007  -10.0950   -2.2748 S.o2      1 LAP         1.3300 
      3 O1          2.5506  -10.4556   -3.5196 O.2       1 LAP        -0.6497 
      4 O2          4.6239   -9.8224   -2.2261 O.2       1 LAP        -0.6497 
      5 C2          2.3584   -8.6923   -1.6113 C.3       1 LAP        -0.3273 
      6 C3          2.5222   -7.4583   -2.4777 C.3       1 LAP         0.1953 
      7 N1          1.8259   -6.3035   -1.9269 N.3       1 LAP        -0.8224 
      8 C4          1.9983   -5.1506   -2.7675 C.3       1 LAP         0.1361 
      9 C5          1.3040   -3.9709   -2.2320 C.2       1 LAP         0.2446 
     10 C6          0.0348   -3.4687   -2.4016 C.2       1 LAP        -0.2329 
     11 C7         -0.0328   -2.2963   -1.6117 C.2       1 LAP        -0.2458 
     12 C8          1.1999   -2.1657   -1.0155 C.2       1 LAP         0.2973 
     13 O3          2.0206   -3.1825   -1.3885 O.3       1 LAP        -0.3614 
     14 C9          1.7783   -1.2043   -0.1094 C.ar      1 LAP        -0.1323 
     15 C10         1.0260   -0.1225    0.3346 C.ar      1 LAP        -0.0802 
     16 C11         1.5879    0.8085    1.2133 C.ar      1 LAP        -0.1796 
     17 C12         2.8996    0.6849    1.6651 C.ar      1 LAP         0.4386 
     18 C13         3.6493   -0.4117    1.2094 C.ar      1 LAP        -0.2903 
     19 C14         3.0914   -1.3522    0.3260 C.ar      1 LAP        -0.0772 
     20 C15         4.9553   -0.5014    1.6826 C.ar      1 LAP         0.7090 
     21 N2          5.5107    0.3871    2.5281 N.2       1 LAP        -0.7524 
     22 C16         4.7000    1.3924    2.8955 C.ar      1 LAP         0.6680 
     23 N3          3.4230    1.5905    2.5099 N.pl3     1 LAP        -0.7056 
     24 N4          5.7734   -1.5812    1.2667 N.pl3     1 LAP        -0.7607 
     25 C17         6.8294   -2.2643    1.8904 C.ar      1 LAP         0.1646 
     26 C18         7.8468   -2.8276    1.1202 C.ar      1 LAP        -0.1651 
     27 C19         8.8963   -3.5062    1.7397 C.ar      1 LAP        -0.1272 
     28 C20         8.9283   -3.6215    3.1295 C.ar      1 LAP         0.0785 
     29 C21         7.9109   -3.0582    3.8996 C.ar      1 LAP         0.0334 
     30 C22         6.8614   -2.3796    3.2801 C.ar      1 LAP        -0.1275 
     31 Cl1         7.9256   -3.1859    5.6200 Cl        1 LAP        -0.0662 
     32 O4          9.9665   -4.2887    3.7081 O.3       1 LAP        -0.3216 
     33 C23        10.1404   -5.6564    3.3442 C.3       1 LAP         0.1743 
     34 C24        10.7495   -6.3902    4.4999 C.ar      1 LAP        -0.0678 
     35 C25        12.1366   -6.4806    4.6156 C.ar      1 LAP        -0.1179 
     36 C26        12.7036   -7.1650    5.6907 C.ar      1 LAP        -0.1096 
     37 C27        11.8835   -7.7590    6.6501 C.ar      1 LAP        -0.1556 
     38 C28        10.4963   -7.6686    6.5342 C.ar      1 LAP         0.1205 
     39 C29         9.9293   -6.9842    5.4590 C.ar      1 LAP        -0.1431 
     40 F1          9.7082   -8.2388    7.4551 F         1 LAP        -0.1415 
     41 H1          3.3323  -11.1227   -0.1318 H         1 LAP         0.1178 
     42 H2          3.2388  -12.3305   -1.4580 H         1 LAP         0.1178 
     43 H3          1.7626  -11.4459   -0.9432 H         1 LAP         0.1178 
     44 H4          1.2836   -8.9130   -1.5333 H         1 LAP         0.1159 
     45 H5          2.7589   -8.4625   -0.6129 H         1 LAP         0.1159 
     46 H6          3.5899   -7.2067   -2.5595 H         1 LAP         0.0527 
     47 H7          2.1145   -7.6572   -3.4799 H         1 LAP         0.0527 
     48 H8          0.7516   -6.5261   -1.8486 H         1 LAP         0.3662 
     49 H9          3.0691   -4.9122   -2.8478 H         1 LAP         0.0578 
     50 H10         1.5938   -5.3626   -3.7682 H         1 LAP         0.0578 
     51 H11        -0.7461   -3.8921   -3.0171 H         1 LAP         0.1706 
     52 H12        -0.8779   -1.6327   -1.4945 H         1 LAP         0.1602 
     53 H13         0.0818   -0.0111    0.0247 H         1 LAP         0.1525 
     54 H14         1.0455    1.5859    1.5318 H         1 LAP         0.1593 
     55 H15         3.6384   -2.1277    0.0107 H         1 LAP         0.1388 
     56 H16         5.0308    2.0980    3.5222 H         1 LAP         0.0574 
     57 H17         2.8140    2.4403    2.8518 H         1 LAP         0.4476 
     58 H18         7.8322   -2.7424    0.0367 H         1 LAP         0.1367 
     59 H19         9.6861   -3.9420    1.1335 H         1 LAP         0.1467 
     60 H20         6.0661   -1.9378    3.8768 H         1 LAP         0.1660 
     61 H21         9.1634   -6.0968    3.0963 H         1 LAP         0.0455 
     62 H22        10.8045   -5.7216    2.4697 H         1 LAP         0.0455 
     63 H23        12.7839   -6.0208    3.8735 H         1 LAP         0.1428 
     64 H24        13.7837   -7.2349    5.7813 H         1 LAP         0.1398 
     65 H25        12.3238   -8.2925    7.4870 H         1 LAP         0.1494 
     66 H26         8.8476   -6.9193    5.3771 H         1 LAP         0.1501 
     67 H67         5.6228   -2.0358    0.2764 H         1 LAP         0.0000 
@<TRIPOS>BOND
     1    1    2 1    
     2    1   41 1    
     3    1   42 1    
     4    1   43 1    
     5    2    3 2    
     6    2    4 2    
     7    2    5 1    
     8    5    6 1    
     9    5   44 1    
    10    5   45 1    
    11    6    7 1    
    12    6   46 1    
    13    6   47 1    
    14    7    8 1    
    15    7   48 1    
    16    8    9 1    
    17    8   49 1    
    18    8   50 1    
    19    9   13 1    
    20    9   10 2    
    21   10   11 1    
    22   10   51 1    
    23   11   12 2    
    24   11   52 1    
    25   12   13 1    
    26   12   14 1    
    27   14   19 ar   
    28   14   15 ar   
    29   15   53 1    
    30   15   16 ar   
    31   16   54 1    
    32   16   17 ar   
    33   17   18 ar   
    34   17   23 ar   
    35   18   20 ar   
    36   18   19 ar   
    37   19   55 1    
    38   20   24 2    
    39   20   21 ar   
    40   21   22 ar   
    41   22   23 ar   
    42   22   56 1    
    43   23   57 1    
    44   24   25 1    
    45   24   67 1    
    46   25   30 ar   
    47   25   26 ar   
    48   26   27 ar   
    49   26   58 1    
    50   27   28 ar   
    51   27   59 1    
    52   28   29 ar   
    53   28   32 1    
    54   29   30 ar   
    55   29   31 1    
    56   30   60 1    
    57   32   33 1    
    58   33   34 1    
    59   33   61 1    
    60   33   62 1    
    61   34   39 ar   
    62   34   35 ar   
    63   35   36 ar   
    64   35   63 1    
    65   36   37 ar   
    66   36   64 1    
    67   37   38 ar   
    68   37   65 1    
    69   38   39 ar   
    70   38   40 1    
    71   39   66 1    
@<TRIPOS>SUBSTRUCTURE
     1 LAP         1 GROUP             0       ****    0 ROOT    
@<TRIPOS>MOLECULE
~{N}-[3-chloro-4-[(3-fluorophenyl)methoxy]phenyl]-6-[5-[(2-methylsulfonylethylamino)methyl]-2-furyl]quinazolin-4-amine
67   71    1
SMALL
USER_CHARGES


@<TRIPOS>ATOM
      1 C1          2.8503  -11.3698   -1.0891 C.3       1 LAP        -0.3611 
      2 S1          3.2007  -10.0950   -2.2748 S.o2      1 LAP         1.3300 
      3 O1          2.5506  -10.4556   -3.5196 O.2       1 LAP        -0.6497 
      4 O2          4.6239   -9.8224   -2.2261 O.2       1 LAP        -0.6497 
      5 C2          2.3584   -8.6923   -1.6113 C.3       1 LAP        -0.3273 
      6 C3          2.5222   -7.4583   -2.4777 C.3       1 LAP         0.1953 
      7 N1          1.8259   -6.3035   -1.9269 N.3       1 LAP        -0.8224 
      8 C4          1.9983   -5.1506   -2.7675 C.3       1 LAP         0.1361 
      9 C5          1.3040   -3.9709   -2.2320 C.2       1 LAP         0.2446 
     10 C6          0.0348   -3.4687   -2.4016 C.2       1 LAP        -0.2329 
     11 C7         -0.0328   -2.2963   -1.6117 C.2       1 LAP        -0.2458 
     12 C8          1.1999   -2.1657   -1.0155 C.2       1 LAP         0.2973 
     13 O3          2.0206   -3.1825   -1.3885 O.3       1 LAP        -0.3614 
     14 C9          1.7783   -1.2043   -0.1094 C.ar      1 LAP        -0.1323 
     15 C10         1.0260   -0.1225    0.3346 C.ar      1 LAP        -0.0802 
     16 C11         1.5879    0.8085    1.2133 C.ar      1 LAP        -0.1796 
     17 C12         2.8996    0.6849    1.6651 C.ar      1 LAP         0.4386 
     18 C13         3.6493   -0.4117    1.2094 C.ar      1 LAP        -0.2903 
     19 C14         3.0914   -1.3522    0.3260 C.ar      1 LAP        -0.0772 
     20 C15         4.9553   -0.5014    1.6826 C.ar      1 LAP         0.7090 
     21 N2          5.5107    0.3871    2.5281 N.2       1 LAP        -0.7524 
     22 C16         4.7000    1.3924    2.8955 C.ar      1 LAP         0.6680 
     23 N3          3.4230    1.5905    2.5099 N.pl3     1 LAP        -0.7056 
     24 N4          5.7734   -1.5812    1.2667 N.pl3     1 LAP        -0.7607 
     25 C17         5.8110   -2.3415    0.0872 C.ar      1 LAP         0.1646 
     26 C18         6.2282   -3.6718    0.1280 C.ar      1 LAP        -0.1651 
     27 C19         6.2653   -4.4275   -1.0438 C.ar      1 LAP        -0.1272 
     28 C20         5.8852   -3.8527   -2.2566 C.ar      1 LAP         0.0785 
     29 C21         5.4679   -2.5224   -2.2975 C.ar      1 LAP         0.0334 
     30 C22         5.4309   -1.7667   -1.1256 C.ar      1 LAP        -0.1275 
     31 Cl1         4.9925   -1.7865   -3.7837 Cl        1 LAP        -0.0662 
     32 O4          5.9300   -4.6149   -3.3858 O.3       1 LAP        -0.3216 
     33 C23         7.1986   -5.1510   -3.7551 C.3       1 LAP         0.1743 
     34 C24         7.2495   -5.2884   -5.2463 C.ar      1 LAP        -0.0678 
     35 C25         6.8273   -6.4716   -5.8525 C.ar      1 LAP        -0.1179 
     36 C26         6.8761   -6.5999   -7.2406 C.ar      1 LAP        -0.1096 
     37 C27         7.3470   -5.5451   -8.0225 C.ar      1 LAP        -0.1556 
     38 C28         7.7694   -4.3620   -7.4161 C.ar      1 LAP         0.1205 
     39 C29         7.7206   -4.2336   -6.0280 C.ar      1 LAP        -0.1431 
     40 F1          8.2218   -3.3487   -8.1664 F         1 LAP        -0.1415 
     41 H1          3.3323  -11.1227   -0.1318 H         1 LAP         0.1178 
     42 H2          3.2388  -12.3305   -1.4580 H         1 LAP         0.1178 
     43 H3          1.7626  -11.4459   -0.9432 H         1 LAP         0.1178 
     44 H4          1.2836   -8.9130   -1.5333 H         1 LAP         0.1159 
     45 H5          2.7589   -8.4625   -0.6129 H         1 LAP         0.1159 
     46 H6          3.5899   -7.2067   -2.5595 H         1 LAP         0.0527 
     47 H7          2.1145   -7.6572   -3.4799 H         1 LAP         0.0527 
     48 H8          0.7516   -6.5261   -1.8486 H         1 LAP         0.3662 
     49 H9          3.0691   -4.9122   -2.8478 H         1 LAP         0.0578 
     50 H10         1.5938   -5.3626   -3.7682 H         1 LAP         0.0578 
     51 H11        -0.7461   -3.8921   -3.0171 H         1 LAP         0.1706 
     52 H12        -0.8779   -1.6327   -1.4945 H         1 LAP         0.1602 
     53 H13         0.0818   -0.0111    0.0247 H         1 LAP         0.1525 
     54 H14         1.0455    1.5859    1.5318 H         1 LAP         0.1593 
     55 H15         3.6384   -2.1277    0.0107 H         1 LAP         0.1388 
     56 H16         5.0308    2.0980    3.5222 H         1 LAP         0.0574 
     57 H17         2.8140    2.4403    2.8518 H         1 LAP         0.4476 
     58 H18         6.5253   -4.1298    1.0679 H         1 LAP         0.1367 
     59 H19         6.5908   -5.4636   -1.0046 H         1 LAP         0.1467 
     60 H20         5.1052   -0.7289   -1.1525 H         1 LAP         0.1660 
     61 H21         7.9958   -4.4734   -3.4159 H         1 LAP         0.0455 
     62 H22         7.3308   -6.1369   -3.2854 H         1 LAP         0.0455 
     63 H23         6.4584   -7.2988   -5.2519 H         1 LAP         0.1428 
     64 H24         6.5467   -7.5209   -7.7129 H         1 LAP         0.1398 
     65 H25         7.3860   -5.6442   -9.1031 H         1 LAP         0.1494 
     66 H26         8.0519   -3.3081   -5.5646 H         1 LAP         0.1501 
     67 H67         6.5591   -1.9648    1.9342 H         1 LAP         0.0000 
@<TRIPOS>BOND
     1    1    2 1    
     2    1   41 1    
     3    1   42 1    
     4    1   43 1    
     5    2    3 2    
     6    2    4 2    
     7    2    5 1    
     8    5    6 1    
     9    5   44 1    
    10    5   45 1    
    11    6    7 1    
    12    6   46 1    
    13    6   47 1    
    14    7    8 1    
    15    7   48 1    
    16    8    9 1    
    17    8   49 1    
    18    8   50 1    
    19    9   13 1    
    20    9   10 2    
    21   10   11 1    
    22   10   51 1    
    23   11   12 2    
    24   11   52 1    
    25   12   13 1    
    26   12   14 1    
    27   14   19 ar   
    28   14   15 ar   
    29   15   53 1    
    30   15   16 ar   
    31   16   54 1    
    32   16   17 ar   
    33   17   18 ar   
    34   17   23 ar   
    35   18   20 ar   
    36   18   19 ar   
    37   19   55 1    
    38   20   24 2    
    39   20   21 ar   
    40   21   22 ar   
    41   22   23 ar   
    42   22   56 1    
    43   23   57 1    
    44   24   25 1    
    45   24   67 1    
    46   25   30 ar   
    47   25   26 ar   
    48   26   27 ar   
    49   26   58 1    
    50   27   28 ar   
    51   27   59 1    
    52   28   29 ar   
    53   28   32 1    
    54   29   30 ar   
    55   29   31 1    
    56   30   60 1    
    57   32   33 1    
    58   33   34 1    
    59   33   61 1    
    60   33   62 1    
    61   34   39 ar   
    62   34   35 ar   
    63   35   36 ar   
    64   35   63 1    
    65   36   37 ar   
    66   36   64 1    
    67   37   38 ar   
    68   37   65 1    
    69   38   39 ar   
    70   38   40 1    
    71   39   66 1    
@<TRIPOS>SUBSTRUCTURE
     1 LAP         1 GROUP             0       ****    0 ROOT    
@<TRIPOS>MOLECULE
~{N}-[3-chloro-4-[(3-fluorophenyl)methoxy]phenyl]-6-[5-[(2-methylsulfonylethylamino)methyl]-2-furyl]quinazolin-4-amine
66   70    1
SMALL
USER_CHARGES


@<TRIPOS>ATOM
      1 C1          2.8506  -11.3702   -1.0877 C.3       1 LAP        -0.3611 
      2 S1          3.2008  -10.0955   -2.2736 S.o2      1 LAP         1.3300 
      3 O1          2.5505  -10.4562   -3.5182 O.2       1 LAP        -0.6497 
      4 O2          4.6239   -9.8228   -2.2251 O.2       1 LAP        -0.6497 
      5 C2          2.3585   -8.6927   -1.6101 C.3       1 LAP        -0.3273 
      6 C3          2.5220   -7.4588   -2.4767 C.3       1 LAP         0.1953 
      7 N1          1.8258   -6.3040   -1.9259 N.4       1 LAP        -0.8224 
      8 C4          1.9979   -5.1512   -2.7666 C.3       1 LAP         0.1361 
      9 C5          1.3037   -3.9715   -2.2312 C.2       1 LAP         0.2446 
     10 C6          0.0344   -3.4694   -2.4006 C.2       1 LAP        -0.2329 
     11 C7         -0.0332   -2.2969   -1.6108 C.2       1 LAP        -0.2458 
     12 C8          1.1996   -2.1662   -1.0148 C.2       1 LAP         0.2973 
     13 O3          2.0203   -3.1829   -1.3879 O.3       1 LAP        -0.3614 
     14 C9          1.7781   -1.2046   -0.1090 C.ar      1 LAP        -0.1323 
     15 C10         1.0259   -0.1228    0.3350 C.ar      1 LAP        -0.0802 
     16 C11         1.5879    0.8085    1.2132 C.ar      1 LAP        -0.1796 
     17 C12         2.8996    0.6850    1.6650 C.ar      1 LAP         0.4386 
     18 C13         3.6493   -0.4117    1.2094 C.ar      1 LAP        -0.2903 
     19 C14         3.0913   -1.3524    0.3263 C.ar      1 LAP        -0.0772 
     20 C15         4.9553   -0.5013    1.6825 C.ar      1 LAP         0.7090 
     21 N2          5.5107    0.3871    2.5281 N.ar      1 LAP        -0.7524 
     22 C16         4.7000    1.3925    2.8954 C.ar      1 LAP         0.6680 
     23 N3          3.4231    1.5906    2.5098 N.ar      1 LAP        -0.7056 
     24 N4          5.7734   -1.5812    1.2667 N.2       1 LAP        -0.7607 
     25 C17         6.8294   -2.2643    1.8904 C.ar      1 LAP         0.1646 
     26 C18         7.8468   -2.8277    1.1203 C.ar      1 LAP        -0.1651 
     27 C19         8.8963   -3.5062    1.7398 C.ar      1 LAP        -0.1272 
     28 C20         8.9283   -3.6214    3.1296 C.ar      1 LAP         0.0785 
     29 C21         7.9109   -3.0580    3.8997 C.ar      1 LAP         0.0334 
     30 C22         6.8614   -2.3795    3.2801 C.ar      1 LAP        -0.1275 
     31 Cl1         7.9256   -3.1856    5.6201 Cl        1 LAP        -0.0662 
     32 O4          9.9665   -4.2886    3.7083 O.3       1 LAP        -0.3216 
     33 C23        10.1403   -5.6563    3.3445 C.3       1 LAP         0.1743 
     34 C24        10.7494   -6.3901    4.5002 C.ar      1 LAP        -0.0678 
     35 C25        12.1365   -6.4805    4.6159 C.ar      1 LAP        -0.1179 
     36 C26        12.7035   -7.1648    5.6911 C.ar      1 LAP        -0.1096 
     37 C27        11.8834   -7.7587    6.6505 C.ar      1 LAP        -0.1556 
     38 C28        10.4962   -7.6683    6.5346 C.ar      1 LAP         0.1205 
     39 C29         9.9292   -6.9840    5.4594 C.ar      1 LAP        -0.1431 
     40 F1          9.7081   -8.2384    7.4556 F         1 LAP        -0.1415 
     41 H1          3.3327  -11.1229   -0.1304 H         1 LAP         0.1178 
     42 H2          3.2392  -12.3309   -1.4565 H         1 LAP         0.1178 
     43 H3          1.7630  -11.4463   -0.9416 H         1 LAP         0.1178 
     44 H4          1.2837   -8.9135   -1.5319 H         1 LAP         0.1159 
     45 H5          2.7591   -8.4628   -0.6118 H         1 LAP         0.1159 
     46 H6          3.5897   -7.2072   -2.5587 H         1 LAP         0.0527 
     47 H7          2.1142   -7.6578   -3.4788 H         1 LAP         0.0527 
     48 H8          0.7514   -6.5267   -1.8474 H         1 LAP         0.3662 
     49 H9          3.0687   -4.9127   -2.8471 H         1 LAP         0.0578 
     50 H10         1.5933   -5.3634   -3.7672 H         1 LAP         0.0578 
     51 H11        -0.7466   -3.8929   -3.0159 H         1 LAP         0.1706 
     52 H12        -0.8783   -1.6333   -1.4936 H         1 LAP         0.1602 
     53 H13        -0.0025    0.0142    0.0088 H         1 LAP         0.1525 
     54 H14         0.9780    1.6463    1.5460 H         1 LAP         0.1593 
     55 H15         3.6726   -2.2021   -0.0265 H         1 LAP         0.1388 
     56 H16         5.1159    2.1256    3.5759 H         1 LAP         0.0574 
     57 H18         7.8322   -2.7426    0.0368 H         1 LAP         0.1367 
     58 H19         9.6860   -3.9421    1.1337 H         1 LAP         0.1467 
     59 H20         6.0661   -1.9376    3.8768 H         1 LAP         0.1660 
     60 H21         9.1633   -6.0968    3.0967 H         1 LAP         0.0455 
     61 H22        10.8044   -5.7216    2.4700 H         1 LAP         0.0455 
     62 H23        12.7838   -6.0208    3.8738 H         1 LAP         0.1428 
     63 H24        13.7836   -7.2347    5.7817 H         1 LAP         0.1398 
     64 H25        12.3237   -8.2922    7.4875 H         1 LAP         0.1494 
     65 H26         8.8475   -6.9190    5.3775 H         1 LAP         0.1501 
     66 H66         2.2269   -6.0760   -0.9273 H         1 LAP         0.0000 
@<TRIPOS>BOND
     1    1    2 1    
     2    1   41 1    
     3    1   42 1    
     4    1   43 1    
     5    2    3 2    
     6    2    4 2    
     7    2    5 1    
     8    5    6 1    
     9    5   44 1    
    10    5   45 1    
    11    6    7 1    
    12    6   46 1    
    13    6   47 1    
    14    7    8 1    
    15    7   48 1    
    16    7   66 1    
    17    8    9 1    
    18    8   49 1    
    19    8   50 1    
    20    9   13 1    
    21    9   10 2    
    22   10   11 1    
    23   10   51 1    
    24   11   12 2    
    25   11   52 1    
    26   12   13 1    
    27   12   14 1    
    28   14   19 ar   
    29   14   15 ar   
    30   15   16 ar   
    31   15   53 1    
    32   16   17 ar   
    33   16   54 1    
    34   17   23 ar   
    35   17   18 ar   
    36   18   19 ar   
    37   18   20 ar   
    38   19   55 1    
    39   20   21 ar   
    40   20   24 1    
    41   21   22 ar   
    42   22   23 ar   
    43   22   56 1    
    44   24   25 1    
    45   25   30 ar   
    46   25   26 ar   
    47   26   27 ar   
    48   26   57 1    
    49   27   28 ar   
    50   27   58 1    
    51   28   29 ar   
    52   28   32 1    
    53   29   30 ar   
    54   29   31 1    
    55   30   59 1    
    56   32   33 1    
    57   33   34 1    
    58   33   60 1    
    59   33   61 1    
    60   34   39 ar   
    61   34   35 ar   
    62   35   36 ar   
    63   35   62 1    
    64   36   37 ar   
    65   36   63 1    
    66   37   38 ar   
    67   37   64 1    
    68   38   39 ar   
    69   38   40 1    
    70   39   65 1    
@<TRIPOS>SUBSTRUCTURE
     1 LAP         1 GROUP             0       ****    0 ROOT    
@<TRIPOS>MOLECULE
~{N}-[3-chloro-4-[(3-fluorophenyl)methoxy]phenyl]-6-[5-[(2-methylsulfonylethylamino)methyl]-2-furyl]quinazolin-4-amine
67   71    1
SMALL
USER_CHARGES


@<TRIPOS>ATOM
      1 C1          2.8506  -11.3702   -1.0877 C.3       1 LAP        -0.3611 
      2 S1          3.2008  -10.0955   -2.2736 S.o2      1 LAP         1.3300 
      3 O1          2.5505  -10.4562   -3.5182 O.2       1 LAP        -0.6497 
      4 O2          4.6239   -9.8228   -2.2251 O.2       1 LAP        -0.6497 
      5 C2          2.3585   -8.6927   -1.6101 C.3       1 LAP        -0.3273 
      6 C3          2.5220   -7.4588   -2.4767 C.3       1 LAP         0.1953 
      7 N1          1.8258   -6.3040   -1.9259 N.3       1 LAP        -0.8224 
      8 C4          1.9979   -5.1512   -2.7666 C.3       1 LAP         0.1361 
      9 C5          1.3037   -3.9715   -2.2312 C.2       1 LAP         0.2446 
     10 C6          0.0344   -3.4694   -2.4006 C.2       1 LAP        -0.2329 
     11 C7         -0.0332   -2.2969   -1.6108 C.2       1 LAP        -0.2458 
     12 C8          1.1996   -2.1662   -1.0148 C.2       1 LAP         0.2973 
     13 O3          2.0203   -3.1829   -1.3879 O.3       1 LAP        -0.3614 
     14 C9          1.7781   -1.2046   -0.1090 C.ar      1 LAP        -0.1323 
     15 C10         1.0259   -0.1228    0.3350 C.ar      1 LAP        -0.0802 
     16 C11         1.5879    0.8085    1.2132 C.ar      1 LAP        -0.1796 
     17 C12         2.8996    0.6850    1.6650 C.ar      1 LAP         0.4386 
     18 C13         3.6493   -0.4117    1.2094 C.ar      1 LAP        -0.2903 
     19 C14         3.0913   -1.3524    0.3263 C.ar      1 LAP        -0.0772 
     20 C15         4.9553   -0.5013    1.6825 C.ar      1 LAP         0.7090 
     21 N2          5.5107    0.3871    2.5281 N.ar      1 LAP        -0.7524 
     22 C16         4.7000    1.3925    2.8954 C.ar      1 LAP         0.6680 
     23 N3          3.4231    1.5906    2.5098 N.pl3     1 LAP        -0.7056 
     24 N4          5.7734   -1.5812    1.2667 N.pl3     1 LAP        -0.7607 
     25 C17         6.8294   -2.2643    1.8904 C.ar      1 LAP         0.1646 
     26 C18         7.8468   -2.8277    1.1203 C.ar      1 LAP        -0.1651 
     27 C19         8.8963   -3.5062    1.7398 C.ar      1 LAP        -0.1272 
     28 C20         8.9283   -3.6214    3.1296 C.ar      1 LAP         0.0785 
     29 C21         7.9109   -3.0580    3.8997 C.ar      1 LAP         0.0334 
     30 C22         6.8614   -2.3795    3.2801 C.ar      1 LAP        -0.1275 
     31 Cl1         7.9256   -3.1856    5.6201 Cl        1 LAP        -0.0662 
     32 O4          9.9665   -4.2886    3.7083 O.3       1 LAP        -0.3216 
     33 C23        10.1403   -5.6563    3.3445 C.3       1 LAP         0.1743 
     34 C24        10.7494   -6.3901    4.5002 C.ar      1 LAP        -0.0678 
     35 C25        12.1365   -6.4805    4.6159 C.ar      1 LAP        -0.1179 
     36 C26        12.7035   -7.1648    5.6911 C.ar      1 LAP        -0.1096 
     37 C27        11.8834   -7.7587    6.6505 C.ar      1 LAP        -0.1556 
     38 C28        10.4962   -7.6683    6.5346 C.ar      1 LAP         0.1205 
     39 C29         9.9292   -6.9840    5.4594 C.ar      1 LAP        -0.1431 
     40 F1          9.7081   -8.2384    7.4556 F         1 LAP        -0.1415 
     41 H1          3.3327  -11.1229   -0.1304 H         1 LAP         0.1178 
     42 H2          3.2392  -12.3309   -1.4565 H         1 LAP         0.1178 
     43 H3          1.7630  -11.4463   -0.9416 H         1 LAP         0.1178 
     44 H4          1.2837   -8.9135   -1.5319 H         1 LAP         0.1159 
     45 H5          2.7591   -8.4628   -0.6118 H         1 LAP         0.1159 
     46 H6          3.5897   -7.2072   -2.5587 H         1 LAP         0.0527 
     47 H7          2.1142   -7.6578   -3.4788 H         1 LAP         0.0527 
     48 H8          0.7514   -6.5267   -1.8474 H         1 LAP         0.3662 
     49 H9          3.0687   -4.9127   -2.8471 H         1 LAP         0.0578 
     50 H10         1.5933   -5.3634   -3.7672 H         1 LAP         0.0578 
     51 H11        -0.7466   -3.8929   -3.0159 H         1 LAP         0.1706 
     52 H12        -0.8783   -1.6333   -1.4936 H         1 LAP         0.1602 
     53 H13        -0.0025    0.0142    0.0088 H         1 LAP         0.1525 
     54 H14         0.9780    1.6463    1.5460 H         1 LAP         0.1593 
     55 H15         3.6726   -2.2021   -0.0265 H         1 LAP         0.1388 
     56 H16         5.1159    2.1256    3.5759 H         1 LAP         0.0574 
     57 H17         5.6227   -2.0358    0.2764 H         1 LAP         0.4476 
     58 H18         7.8322   -2.7426    0.0368 H         1 LAP         0.1367 
     59 H19         9.6860   -3.9421    1.1337 H         1 LAP         0.1467 
     60 H20         6.0661   -1.9376    3.8768 H         1 LAP         0.1660 
     61 H21         9.1633   -6.0968    3.0967 H         1 LAP         0.0455 
     62 H22        10.8044   -5.7216    2.4700 H         1 LAP         0.0455 
     63 H23        12.7838   -6.0208    3.8738 H         1 LAP         0.1428 
     64 H24        13.7836   -7.2347    5.7817 H         1 LAP         0.1398 
     65 H25        12.3237   -8.2922    7.4875 H         1 LAP         0.1494 
     66 H26         8.8475   -6.9190    5.3775 H         1 LAP         0.1501 
     67 H67         2.8141    2.4405    2.8515 H         1 LAP         0.0000 
@<TRIPOS>BOND
     1    1    2 1    
     2    1   41 1    
     3    1   42 1    
     4    1   43 1    
     5    2    3 2    
     6    2    4 2    
     7    2    5 1    
     8    5    6 1    
     9    5   44 1    
    10    5   45 1    
    11    6    7 1    
    12    6   46 1    
    13    6   47 1    
    14    7    8 1    
    15    7   48 1    
    16    8    9 1    
    17    8   49 1    
    18    8   50 1    
    19    9   13 1    
    20    9   10 2    
    21   10   11 1    
    22   10   51 1    
    23   11   12 2    
    24   11   52 1    
    25   12   13 1    
    26   12   14 1    
    27   14   19 ar   
    28   14   15 ar   
    29   15   16 ar   
    30   15   53 1    
    31   16   17 ar   
    32   16   54 1    
    33   17   23 ar   
    34   17   18 ar   
    35   18   19 ar   
    36   18   20 ar   
    37   19   55 1    
    38   20   21 ar   
    39   20   24 1    
    40   21   22 ar   
    41   22   23 ar   
    42   22   56 1    
    43   23   67 1    
    44   24   25 1    
    45   24   57 1    
    46   25   30 ar   
    47   25   26 ar   
    48   26   27 ar   
    49   26   58 1    
    50   27   28 ar   
    51   27   59 1    
    52   28   29 ar   
    53   28   32 1    
    54   29   30 ar   
    55   29   31 1    
    56   30   60 1    
    57   32   33 1    
    58   33   34 1    
    59   33   61 1    
    60   33   62 1    
    61   34   39 ar   
    62   34   35 ar   
    63   35   36 ar   
    64   35   63 1    
    65   36   37 ar   
    66   36   64 1    
    67   37   38 ar   
    68   37   65 1    
    69   38   39 ar   
    70   38   40 1    
    71   39   66 1    
@<TRIPOS>SUBSTRUCTURE
     1 LAP         1 GROUP             0       ****    0 ROOT    
@<TRIPOS>MOLECULE
~{N}-[3-chloro-4-[(3-fluorophenyl)methoxy]phenyl]-6-[5-[(2-methylsulfonylethylamino)methyl]-2-furyl]quinazolin-4-amine
68   72    1
SMALL
USER_CHARGES


@<TRIPOS>ATOM
      1 C1          2.8506  -11.3702   -1.0877 C.3       1 LAP        -0.3611 
      2 S1          3.2008  -10.0955   -2.2736 S.o2      1 LAP         1.3300 
      3 O1          2.5505  -10.4562   -3.5182 O.2       1 LAP        -0.6497 
      4 O2          4.6239   -9.8228   -2.2251 O.2       1 LAP        -0.6497 
      5 C2          2.3585   -8.6927   -1.6101 C.3       1 LAP        -0.3273 
      6 C3          2.5220   -7.4588   -2.4767 C.3       1 LAP         0.1953 
      7 N1          1.8258   -6.3040   -1.9259 N.4       1 LAP        -0.8224 
      8 C4          1.9979   -5.1512   -2.7666 C.3       1 LAP         0.1361 
      9 C5          1.3037   -3.9715   -2.2312 C.2       1 LAP         0.2446 
     10 C6          0.0344   -3.4694   -2.4006 C.2       1 LAP        -0.2329 
     11 C7         -0.0332   -2.2969   -1.6108 C.2       1 LAP        -0.2458 
     12 C8          1.1996   -2.1662   -1.0148 C.2       1 LAP         0.2973 
     13 O3          2.0203   -3.1829   -1.3879 O.3       1 LAP        -0.3614 
     14 C9          1.7781   -1.2046   -0.1090 C.ar      1 LAP        -0.1323 
     15 C10         1.0259   -0.1228    0.3350 C.ar      1 LAP        -0.0802 
     16 C11         1.5879    0.8085    1.2132 C.ar      1 LAP        -0.1796 
     17 C12         2.8996    0.6850    1.6650 C.ar      1 LAP         0.4386 
     18 C13         3.6493   -0.4117    1.2094 C.ar      1 LAP        -0.2903 
     19 C14         3.0913   -1.3524    0.3263 C.ar      1 LAP        -0.0772 
     20 C15         4.9553   -0.5013    1.6825 C.ar      1 LAP         0.7090 
     21 N2          5.5107    0.3871    2.5281 N.pl3     1 LAP        -0.7524 
     22 C16         4.7000    1.3925    2.8954 C.ar      1 LAP         0.6680 
     23 N3          3.4231    1.5906    2.5098 N.ar      1 LAP        -0.7056 
     24 N4          5.7734   -1.5812    1.2667 N.pl3     1 LAP        -0.7607 
     25 C17         6.8294   -2.2643    1.8904 C.ar      1 LAP         0.1646 
     26 C18         7.8468   -2.8277    1.1203 C.ar      1 LAP        -0.1651 
     27 C19         8.8963   -3.5062    1.7398 C.ar      1 LAP        -0.1272 
     28 C20         8.9283   -3.6214    3.1296 C.ar      1 LAP         0.0785 
     29 C21         7.9109   -3.0580    3.8997 C.ar      1 LAP         0.0334 
     30 C22         6.8614   -2.3795    3.2801 C.ar      1 LAP        -0.1275 
     31 Cl1         7.9256   -3.1856    5.6201 Cl        1 LAP        -0.0662 
     32 O4          9.9665   -4.2886    3.7083 O.3       1 LAP        -0.3216 
     33 C23        10.1403   -5.6563    3.3445 C.3       1 LAP         0.1743 
     34 C24        10.7494   -6.3901    4.5002 C.ar      1 LAP        -0.0678 
     35 C25        12.1365   -6.4805    4.6159 C.ar      1 LAP        -0.1179 
     36 C26        12.7035   -7.1648    5.6911 C.ar      1 LAP        -0.1096 
     37 C27        11.8834   -7.7587    6.6505 C.ar      1 LAP        -0.1556 
     38 C28        10.4962   -7.6683    6.5346 C.ar      1 LAP         0.1205 
     39 C29         9.9292   -6.9840    5.4594 C.ar      1 LAP        -0.1431 
     40 F1          9.7081   -8.2384    7.4556 F         1 LAP        -0.1415 
     41 H1          3.3327  -11.1229   -0.1304 H         1 LAP         0.1178 
     42 H2          3.2392  -12.3309   -1.4565 H         1 LAP         0.1178 
     43 H3          1.7630  -11.4463   -0.9416 H         1 LAP         0.1178 
     44 H4          1.2837   -8.9135   -1.5319 H         1 LAP         0.1159 
     45 H5          2.7591   -8.4628   -0.6118 H         1 LAP         0.1159 
     46 H6          3.5897   -7.2072   -2.5587 H         1 LAP         0.0527 
     47 H7          2.1142   -7.6578   -3.4788 H         1 LAP         0.0527 
     48 H8          0.7514   -6.5267   -1.8474 H         1 LAP         0.3662 
     49 H9          3.0687   -4.9127   -2.8471 H         1 LAP         0.0578 
     50 H10         1.5933   -5.3634   -3.7672 H         1 LAP         0.0578 
     51 H11        -0.7466   -3.8929   -3.0159 H         1 LAP         0.1706 
     52 H12        -0.8783   -1.6333   -1.4936 H         1 LAP         0.1602 
     53 H13        -0.0025    0.0142    0.0088 H         1 LAP         0.1525 
     54 H14         0.9780    1.6463    1.5460 H         1 LAP         0.1593 
     55 H15         3.6726   -2.2021   -0.0265 H         1 LAP         0.1388 
     56 H16         5.1159    2.1256    3.5759 H         1 LAP         0.0574 
     57 H17         5.6227   -2.0358    0.2764 H         1 LAP         0.4476 
     58 H18         7.8322   -2.7426    0.0368 H         1 LAP         0.1367 
     59 H19         9.6860   -3.9421    1.1337 H         1 LAP         0.1467 
     60 H20         6.0661   -1.9376    3.8768 H         1 LAP         0.1660 
     61 H21         9.1633   -6.0968    3.0967 H         1 LAP         0.0455 
     62 H22        10.8044   -5.7216    2.4700 H         1 LAP         0.0455 
     63 H23        12.7838   -6.0208    3.8738 H         1 LAP         0.1428 
     64 H24        13.7836   -7.2347    5.7817 H         1 LAP         0.1398 
     65 H25        12.3237   -8.2922    7.4875 H         1 LAP         0.1494 
     66 H26         8.8475   -6.9190    5.3775 H         1 LAP         0.1501 
     67 H67         2.2269   -6.0760   -0.9273 H         1 LAP         0.0000 
     68 H68         6.5505    0.2535    2.8612 H         1 LAP         0.0000 
@<TRIPOS>BOND
     1    1    2 1    
     2    1   41 1    
     3    1   42 1    
     4    1   43 1    
     5    2    3 2    
     6    2    4 2    
     7    2    5 1    
     8    5    6 1    
     9    5   44 1    
    10    5   45 1    
    11    6    7 1    
    12    6   46 1    
    13    6   47 1    
    14    7    8 1    
    15    7   48 1    
    16    7   67 1    
    17    8    9 1    
    18    8   49 1    
    19    8   50 1    
    20    9   13 1    
    21    9   10 2    
    22   10   11 1    
    23   10   51 1    
    24   11   12 2    
    25   11   52 1    
    26   12   13 1    
    27   12   14 1    
    28   14   19 ar   
    29   14   15 ar   
    30   15   16 ar   
    31   15   53 1    
    32   16   17 ar   
    33   16   54 1    
    34   17   23 ar   
    35   17   18 ar   
    36   18   19 ar   
    37   18   20 ar   
    38   19   55 1    
    39   20   21 ar   
    40   20   24 1    
    41   21   22 ar   
    42   21   68 1    
    43   22   23 ar   
    44   22   56 1    
    45   24   25 1    
    46   24   57 1    
    47   25   30 ar   
    48   25   26 ar   
    49   26   27 ar   
    50   26   58 1    
    51   27   28 ar   
    52   27   59 1    
    53   28   29 ar   
    54   28   32 1    
    55   29   30 ar   
    56   29   31 1    
    57   30   60 1    
    58   32   33 1    
    59   33   34 1    
    60   33   61 1    
    61   33   62 1    
    62   34   39 ar   
    63   34   35 ar   
    64   35   36 ar   
    65   35   63 1    
    66   36   37 ar   
    67   36   64 1    
    68   37   38 ar   
    69   37   65 1    
    70   38   39 ar   
    71   38   40 1    
    72   39   66 1    
@<TRIPOS>SUBSTRUCTURE
     1 LAP         1 GROUP             0       ****    0 ROOT    
@<TRIPOS>MOLECULE
~{N}-[3-chloro-4-[(3-fluorophenyl)methoxy]phenyl]-6-[5-[(2-methylsulfonylethylamino)methyl]-2-furyl]quinazolin-4-amine
65   69    1
SMALL
USER_CHARGES


@<TRIPOS>ATOM
      1 C1          2.8506  -11.3702   -1.0877 C.3       1 LAP        -0.3611 
      2 S1          3.2008  -10.0955   -2.2736 S.o2      1 LAP         1.3300 
      3 O1          2.5505  -10.4562   -3.5182 O.2       1 LAP        -0.6497 
      4 O2          4.6239   -9.8228   -2.2251 O.2       1 LAP        -0.6497 
      5 C2          2.3585   -8.6927   -1.6101 C.3       1 LAP        -0.3273 
      6 C3          2.5220   -7.4588   -2.4767 C.3       1 LAP         0.1953 
      7 N1          1.8258   -6.3040   -1.9259 N.3       1 LAP        -0.8224 
      8 C4          1.9979   -5.1512   -2.7666 C.3       1 LAP         0.1361 
      9 C5          1.3037   -3.9715   -2.2312 C.2       1 LAP         0.2446 
     10 C6          0.0344   -3.4694   -2.4006 C.2       1 LAP        -0.2329 
     11 C7         -0.0332   -2.2969   -1.6108 C.2       1 LAP        -0.2458 
     12 C8          1.1996   -2.1662   -1.0148 C.2       1 LAP         0.2973 
     13 O3          2.0203   -3.1829   -1.3879 O.3       1 LAP        -0.3614 
     14 C9          1.7781   -1.2046   -0.1090 C.ar      1 LAP        -0.1323 
     15 C10         1.0259   -0.1228    0.3350 C.ar      1 LAP        -0.0802 
     16 C11         1.5879    0.8085    1.2132 C.ar      1 LAP        -0.1796 
     17 C12         2.8996    0.6850    1.6650 C.ar      1 LAP         0.4386 
     18 C13         3.6493   -0.4117    1.2094 C.ar      1 LAP        -0.2903 
     19 C14         3.0913   -1.3524    0.3263 C.ar      1 LAP        -0.0772 
     20 C15         4.9553   -0.5013    1.6825 C.ar      1 LAP         0.7090 
     21 N2          5.5107    0.3871    2.5281 N.ar      1 LAP        -0.7524 
     22 C16         4.7000    1.3925    2.8954 C.ar      1 LAP         0.6680 
     23 N3          3.4231    1.5906    2.5098 N.ar      1 LAP        -0.7056 
     24 N4          5.7734   -1.5812    1.2667 N.2       1 LAP        -0.7607 
     25 C17         6.8294   -2.2643    1.8904 C.ar      1 LAP         0.1646 
     26 C18         7.8468   -2.8277    1.1203 C.ar      1 LAP        -0.1651 
     27 C19         8.8963   -3.5062    1.7398 C.ar      1 LAP        -0.1272 
     28 C20         8.9283   -3.6214    3.1296 C.ar      1 LAP         0.0785 
     29 C21         7.9109   -3.0580    3.8997 C.ar      1 LAP         0.0334 
     30 C22         6.8614   -2.3795    3.2801 C.ar      1 LAP        -0.1275 
     31 Cl1         7.9256   -3.1856    5.6201 Cl        1 LAP        -0.0662 
     32 O4          9.9665   -4.2886    3.7083 O.3       1 LAP        -0.3216 
     33 C23        10.1403   -5.6563    3.3445 C.3       1 LAP         0.1743 
     34 C24        10.7494   -6.3901    4.5002 C.ar      1 LAP        -0.0678 
     35 C25        12.1365   -6.4805    4.6159 C.ar      1 LAP        -0.1179 
     36 C26        12.7035   -7.1648    5.6911 C.ar      1 LAP        -0.1096 
     37 C27        11.8834   -7.7587    6.6505 C.ar      1 LAP        -0.1556 
     38 C28        10.4962   -7.6683    6.5346 C.ar      1 LAP         0.1205 
     39 C29         9.9292   -6.9840    5.4594 C.ar      1 LAP        -0.1431 
     40 F1          9.7081   -8.2384    7.4556 F         1 LAP        -0.1415 
     41 H1          3.3327  -11.1229   -0.1304 H         1 LAP         0.1178 
     42 H2          3.2392  -12.3309   -1.4565 H         1 LAP         0.1178 
     43 H3          1.7630  -11.4463   -0.9416 H         1 LAP         0.1178 
     44 H4          1.2837   -8.9135   -1.5319 H         1 LAP         0.1159 
     45 H5          2.7591   -8.4628   -0.6118 H         1 LAP         0.1159 
     46 H6          3.5897   -7.2072   -2.5587 H         1 LAP         0.0527 
     47 H7          2.1142   -7.6578   -3.4788 H         1 LAP         0.0527 
     48 H8          0.7514   -6.5267   -1.8474 H         1 LAP         0.3662 
     49 H9          3.0687   -4.9127   -2.8471 H         1 LAP         0.0578 
     50 H10         1.5933   -5.3634   -3.7672 H         1 LAP         0.0578 
     51 H11        -0.7466   -3.8929   -3.0159 H         1 LAP         0.1706 
     52 H12        -0.8783   -1.6333   -1.4936 H         1 LAP         0.1602 
     53 H13        -0.0025    0.0142    0.0088 H         1 LAP         0.1525 
     54 H14         0.9780    1.6463    1.5460 H         1 LAP         0.1593 
     55 H15         3.6726   -2.2021   -0.0265 H         1 LAP         0.1388 
     56 H16         5.1159    2.1256    3.5759 H         1 LAP         0.0574 
     57 H18         7.8322   -2.7426    0.0368 H         1 LAP         0.1367 
     58 H19         9.6860   -3.9421    1.1337 H         1 LAP         0.1467 
     59 H20         6.0661   -1.9376    3.8768 H         1 LAP         0.1660 
     60 H21         9.1633   -6.0968    3.0967 H         1 LAP         0.0455 
     61 H22        10.8044   -5.7216    2.4700 H         1 LAP         0.0455 
     62 H23        12.7838   -6.0208    3.8738 H         1 LAP         0.1428 
     63 H24        13.7836   -7.2347    5.7817 H         1 LAP         0.1398 
     64 H25        12.3237   -8.2922    7.4875 H         1 LAP         0.1494 
     65 H26         8.8475   -6.9190    5.3775 H         1 LAP         0.1501 
@<TRIPOS>BOND
     1    1    2 1    
     2    1   41 1    
     3    1   42 1    
     4    1   43 1    
     5    2    3 2    
     6    2    4 2    
     7    2    5 1    
     8    5    6 1    
     9    5   44 1    
    10    5   45 1    
    11    6    7 1    
    12    6   46 1    
    13    6   47 1    
    14    7    8 1    
    15    7   48 1    
    16    8    9 1    
    17    8   49 1    
    18    8   50 1    
    19    9   13 1    
    20    9   10 2    
    21   10   11 1    
    22   10   51 1    
    23   11   12 2    
    24   11   52 1    
    25   12   13 1    
    26   12   14 1    
    27   14   19 ar   
    28   14   15 ar   
    29   15   16 ar   
    30   15   53 1    
    31   16   17 ar   
    32   16   54 1    
    33   17   23 ar   
    34   17   18 ar   
    35   18   19 ar   
    36   18   20 ar   
    37   19   55 1    
    38   20   21 ar   
    39   20   24 1    
    40   21   22 ar   
    41   22   23 ar   
    42   22   56 1    
    43   24   25 1    
    44   25   30 ar   
    45   25   26 ar   
    46   26   27 ar   
    47   26   57 1    
    48   27   28 ar   
    49   27   58 1    
    50   28   29 ar   
    51   28   32 1    
    52   29   30 ar   
    53   29   31 1    
    54   30   59 1    
    55   32   33 1    
    56   33   34 1    
    57   33   60 1    
    58   33   61 1    
    59   34   39 ar   
    60   34   35 ar   
    61   35   36 ar   
    62   35   62 1    
    63   36   37 ar   
    64   36   63 1    
    65   37   38 ar   
    66   37   64 1    
    67   38   39 ar   
    68   38   40 1    
    69   39   65 1    
@<TRIPOS>SUBSTRUCTURE
     1 LAP         1 GROUP             0       ****    0 ROOT    
@<TRIPOS>MOLECULE
~{N}-[3-chloro-4-[(3-fluorophenyl)methoxy]phenyl]-6-[5-[(2-methylsulfonylethylamino)methyl]-2-furyl]quinazolin-4-amine
66   70    1
SMALL
USER_CHARGES


@<TRIPOS>ATOM
      1 C1          2.8503  -11.3698   -1.0891 C.3       1 LAP        -0.3611 
      2 S1          3.2007  -10.0950   -2.2748 S.o2      1 LAP         1.3300 
      3 O1          2.5506  -10.4556   -3.5196 O.2       1 LAP        -0.6497 
      4 O2          4.6239   -9.8224   -2.2261 O.2       1 LAP        -0.6497 
      5 C2          2.3584   -8.6923   -1.6113 C.3       1 LAP        -0.3273 
      6 C3          2.5222   -7.4583   -2.4777 C.3       1 LAP         0.1953 
      7 N1          1.8259   -6.3035   -1.9269 N.4       1 LAP        -0.8224 
      8 C4          1.9983   -5.1506   -2.7675 C.3       1 LAP         0.1361 
      9 C5          1.3040   -3.9709   -2.2320 C.2       1 LAP         0.2446 
     10 C6          0.0348   -3.4687   -2.4016 C.2       1 LAP        -0.2329 
     11 C7         -0.0328   -2.2963   -1.6117 C.2       1 LAP        -0.2458 
     12 C8          1.1999   -2.1657   -1.0155 C.2       1 LAP         0.2973 
     13 O3          2.0206   -3.1825   -1.3885 O.3       1 LAP        -0.3614 
     14 C9          1.7783   -1.2043   -0.1094 C.ar      1 LAP        -0.1323 
     15 C10         1.0260   -0.1225    0.3346 C.ar      1 LAP        -0.0802 
     16 C11         1.5879    0.8085    1.2133 C.ar      1 LAP        -0.1796 
     17 C12         2.8996    0.6849    1.6651 C.ar      1 LAP         0.4386 
     18 C13         3.6493   -0.4117    1.2094 C.ar      1 LAP        -0.2903 
     19 C14         3.0914   -1.3522    0.3260 C.ar      1 LAP        -0.0772 
     20 C15         4.9553   -0.5014    1.6826 C.ar      1 LAP         0.7090 
     21 N2          5.5107    0.3871    2.5281 N.2       1 LAP        -0.7524 
     22 C16         4.7000    1.3924    2.8955 C.ar      1 LAP         0.6680 
     23 N3          3.4230    1.5905    2.5099 N.ar      1 LAP        -0.7056 
     24 N4          5.7734   -1.5812    1.2667 N.2       1 LAP        -0.7607 
     25 C17         6.8294   -2.2643    1.8904 C.ar      1 LAP         0.1646 
     26 C18         7.8468   -2.8276    1.1202 C.ar      1 LAP        -0.1651 
     27 C19         8.8963   -3.5062    1.7397 C.ar      1 LAP        -0.1272 
     28 C20         8.9283   -3.6215    3.1295 C.ar      1 LAP         0.0785 
     29 C21         7.9109   -3.0582    3.8996 C.ar      1 LAP         0.0334 
     30 C22         6.8614   -2.3796    3.2801 C.ar      1 LAP        -0.1275 
     31 Cl1         7.9256   -3.1859    5.6200 Cl        1 LAP        -0.0662 
     32 O4          9.9665   -4.2887    3.7081 O.3       1 LAP        -0.3216 
     33 C23        10.1404   -5.6564    3.3442 C.3       1 LAP         0.1743 
     34 C24        10.7495   -6.3902    4.4999 C.ar      1 LAP        -0.0678 
     35 C25        12.1366   -6.4806    4.6156 C.ar      1 LAP        -0.1179 
     36 C26        12.7036   -7.1650    5.6907 C.ar      1 LAP        -0.1096 
     37 C27        11.8835   -7.7590    6.6501 C.ar      1 LAP        -0.1556 
     38 C28        10.4963   -7.6686    6.5342 C.ar      1 LAP         0.1205 
     39 C29         9.9293   -6.9842    5.4590 C.ar      1 LAP        -0.1431 
     40 F1          9.7082   -8.2388    7.4551 F         1 LAP        -0.1415 
     41 H1          3.3323  -11.1227   -0.1318 H         1 LAP         0.1178 
     42 H2          3.2388  -12.3305   -1.4580 H         1 LAP         0.1178 
     43 H3          1.7626  -11.4459   -0.9432 H         1 LAP         0.1178 
     44 H4          1.2836   -8.9130   -1.5333 H         1 LAP         0.1159 
     45 H5          2.7589   -8.4625   -0.6129 H         1 LAP         0.1159 
     46 H6          3.5899   -7.2067   -2.5595 H         1 LAP         0.0527 
     47 H7          2.1145   -7.6572   -3.4799 H         1 LAP         0.0527 
     48 H8          0.7516   -6.5261   -1.8486 H         1 LAP         0.3662 
     49 H9          3.0691   -4.9122   -2.8478 H         1 LAP         0.0578 
     50 H10         1.5938   -5.3626   -3.7682 H         1 LAP         0.0578 
     51 H11        -0.7461   -3.8921   -3.0171 H         1 LAP         0.1706 
     52 H12        -0.8779   -1.6327   -1.4945 H         1 LAP         0.1602 
     53 H13         0.0818   -0.0111    0.0247 H         1 LAP         0.1525 
     54 H14         1.0455    1.5859    1.5318 H         1 LAP         0.1593 
     55 H15         3.6384   -2.1277    0.0107 H         1 LAP         0.1388 
     56 H16         5.1383    2.0359    3.5230 H         1 LAP         0.0574 
     57 H18         7.8322   -2.7424    0.0367 H         1 LAP         0.1367 
     58 H19         9.6861   -3.9420    1.1335 H         1 LAP         0.1467 
     59 H20         6.0661   -1.9378    3.8768 H         1 LAP         0.1660 
     60 H21         9.1634   -6.0968    3.0963 H         1 LAP         0.0455 
     61 H22        10.8045   -5.7216    2.4697 H         1 LAP         0.0455 
     62 H23        12.7839   -6.0208    3.8735 H         1 LAP         0.1428 
     63 H24        13.7837   -7.2349    5.7813 H         1 LAP         0.1398 
     64 H25        12.3238   -8.2925    7.4870 H         1 LAP         0.1494 
     65 H26         8.8476   -6.9193    5.3771 H         1 LAP         0.1501 
     66 H66         2.2269   -6.0756   -0.9283 H         1 LAP         0.0000 
@<TRIPOS>BOND
     1    1    2 1    
     2    1   41 1    
     3    1   42 1    
     4    1   43 1    
     5    2    3 2    
     6    2    4 2    
     7    2    5 1    
     8    5    6 1    
     9    5   44 1    
    10    5   45 1    
    11    6    7 1    
    12    6   46 1    
    13    6   47 1    
    14    7    8 1    
    15    7   48 1    
    16    7   66 1    
    17    8    9 1    
    18    8   49 1    
    19    8   50 1    
    20    9   13 1    
    21    9   10 2    
    22   10   11 1    
    23   10   51 1    
    24   11   12 2    
    25   11   52 1    
    26   12   13 1    
    27   12   14 1    
    28   14   19 ar   
    29   14   15 ar   
    30   15   53 1    
    31   15   16 ar   
    32   16   54 1    
    33   16   17 ar   
    34   17   18 ar   
    35   17   23 ar   
    36   18   20 ar   
    37   18   19 ar   
    38   19   55 1    
    39   20   24 2    
    40   20   21 ar   
    41   21   22 ar   
    42   22   23 ar   
    43   22   56 1    
    44   24   25 1    
    45   25   30 ar   
    46   25   26 ar   
    47   26   27 ar   
    48   26   57 1    
    49   27   28 ar   
    50   27   58 1    
    51   28   29 ar   
    52   28   32 1    
    53   29   30 ar   
    54   29   31 1    
    55   30   59 1    
    56   32   33 1    
    57   33   34 1    
    58   33   60 1    
    59   33   61 1    
    60   34   39 ar   
    61   34   35 ar   
    62   35   36 ar   
    63   35   62 1    
    64   36   37 ar   
    65   36   63 1    
    66   37   38 ar   
    67   37   64 1    
    68   38   39 ar   
    69   38   40 1    
    70   39   65 1    
@<TRIPOS>SUBSTRUCTURE
     1 LAP         1 GROUP             0       ****    0 ROOT    
@<TRIPOS>MOLECULE
~{N}-[3-chloro-4-[(3-fluorophenyl)methoxy]phenyl]-6-[5-[(2-methylsulfonylethylamino)methyl]-2-furyl]quinazolin-4-amine
66   70    1
SMALL
USER_CHARGES


@<TRIPOS>ATOM
      1 C1          2.8503  -11.3698   -1.0891 C.3       1 LAP        -0.3611 
      2 S1          3.2007  -10.0950   -2.2748 S.o2      1 LAP         1.3300 
      3 O1          2.5506  -10.4556   -3.5196 O.2       1 LAP        -0.6497 
      4 O2          4.6239   -9.8224   -2.2261 O.2       1 LAP        -0.6497 
      5 C2          2.3584   -8.6923   -1.6113 C.3       1 LAP        -0.3273 
      6 C3          2.5222   -7.4583   -2.4777 C.3       1 LAP         0.1953 
      7 N1          1.8259   -6.3035   -1.9269 N.4       1 LAP        -0.8224 
      8 C4          1.9983   -5.1506   -2.7675 C.3       1 LAP         0.1361 
      9 C5          1.3040   -3.9709   -2.2320 C.2       1 LAP         0.2446 
     10 C6          0.0348   -3.4687   -2.4016 C.2       1 LAP        -0.2329 
     11 C7         -0.0328   -2.2963   -1.6117 C.2       1 LAP        -0.2458 
     12 C8          1.1999   -2.1657   -1.0155 C.2       1 LAP         0.2973 
     13 O3          2.0206   -3.1825   -1.3885 O.3       1 LAP        -0.3614 
     14 C9          1.7783   -1.2043   -0.1094 C.ar      1 LAP        -0.1323 
     15 C10         1.0260   -0.1225    0.3346 C.ar      1 LAP        -0.0802 
     16 C11         1.5879    0.8085    1.2133 C.ar      1 LAP        -0.1796 
     17 C12         2.8996    0.6849    1.6651 C.ar      1 LAP         0.4386 
     18 C13         3.6493   -0.4117    1.2094 C.ar      1 LAP        -0.2903 
     19 C14         3.0914   -1.3522    0.3260 C.ar      1 LAP        -0.0772 
     20 C15         4.9553   -0.5014    1.6826 C.ar      1 LAP         0.7090 
     21 N2          5.5107    0.3871    2.5281 N.2       1 LAP        -0.7524 
     22 C16         4.7000    1.3924    2.8955 C.ar      1 LAP         0.6680 
     23 N3          3.4230    1.5905    2.5099 N.ar      1 LAP        -0.7056 
     24 N4          5.7734   -1.5812    1.2667 N.2       1 LAP        -0.7607 
     25 C17         5.8110   -2.3415    0.0872 C.ar      1 LAP         0.1646 
     26 C18         6.2282   -3.6718    0.1280 C.ar      1 LAP        -0.1651 
     27 C19         6.2653   -4.4275   -1.0438 C.ar      1 LAP        -0.1272 
     28 C20         5.8852   -3.8527   -2.2566 C.ar      1 LAP         0.0785 
     29 C21         5.4679   -2.5224   -2.2975 C.ar      1 LAP         0.0334 
     30 C22         5.4309   -1.7667   -1.1256 C.ar      1 LAP        -0.1275 
     31 Cl1         4.9925   -1.7865   -3.7837 Cl        1 LAP        -0.0662 
     32 O4          5.9300   -4.6149   -3.3858 O.3       1 LAP        -0.3216 
     33 C23         7.1986   -5.1510   -3.7551 C.3       1 LAP         0.1743 
     34 C24         7.2495   -5.2884   -5.2463 C.ar      1 LAP        -0.0678 
     35 C25         6.8273   -6.4716   -5.8525 C.ar      1 LAP        -0.1179 
     36 C26         6.8761   -6.5999   -7.2406 C.ar      1 LAP        -0.1096 
     37 C27         7.3470   -5.5451   -8.0225 C.ar      1 LAP        -0.1556 
     38 C28         7.7694   -4.3620   -7.4161 C.ar      1 LAP         0.1205 
     39 C29         7.7206   -4.2336   -6.0280 C.ar      1 LAP        -0.1431 
     40 F1          8.2218   -3.3487   -8.1664 F         1 LAP        -0.1415 
     41 H1          3.3323  -11.1227   -0.1318 H         1 LAP         0.1178 
     42 H2          3.2388  -12.3305   -1.4580 H         1 LAP         0.1178 
     43 H3          1.7626  -11.4459   -0.9432 H         1 LAP         0.1178 
     44 H4          1.2836   -8.9130   -1.5333 H         1 LAP         0.1159 
     45 H5          2.7589   -8.4625   -0.6129 H         1 LAP         0.1159 
     46 H6          3.5899   -7.2067   -2.5595 H         1 LAP         0.0527 
     47 H7          2.1145   -7.6572   -3.4799 H         1 LAP         0.0527 
     48 H8          0.7516   -6.5261   -1.8486 H         1 LAP         0.3662 
     49 H9          3.0691   -4.9122   -2.8478 H         1 LAP         0.0578 
     50 H10         1.5938   -5.3626   -3.7682 H         1 LAP         0.0578 
     51 H11        -0.7461   -3.8921   -3.0171 H         1 LAP         0.1706 
     52 H12        -0.8779   -1.6327   -1.4945 H         1 LAP         0.1602 
     53 H13         0.0818   -0.0111    0.0247 H         1 LAP         0.1525 
     54 H14         1.0455    1.5859    1.5318 H         1 LAP         0.1593 
     55 H15         3.6384   -2.1277    0.0107 H         1 LAP         0.1388 
     56 H16         5.1383    2.0359    3.5230 H         1 LAP         0.0574 
     57 H18         6.5253   -4.1298    1.0679 H         1 LAP         0.1367 
     58 H19         6.5908   -5.4636   -1.0046 H         1 LAP         0.1467 
     59 H20         5.1052   -0.7289   -1.1525 H         1 LAP         0.1660 
     60 H21         7.9958   -4.4734   -3.4159 H         1 LAP         0.0455 
     61 H22         7.3308   -6.1369   -3.2854 H         1 LAP         0.0455 
     62 H23         6.4584   -7.2988   -5.2519 H         1 LAP         0.1428 
     63 H24         6.5467   -7.5209   -7.7129 H         1 LAP         0.1398 
     64 H25         7.3860   -5.6442   -9.1031 H         1 LAP         0.1494 
     65 H26         8.0519   -3.3081   -5.5646 H         1 LAP         0.1501 
     66 H66         2.2269   -6.0756   -0.9283 H         1 LAP         0.0000 
@<TRIPOS>BOND
     1    1    2 1    
     2    1   41 1    
     3    1   42 1    
     4    1   43 1    
     5    2    3 2    
     6    2    4 2    
     7    2    5 1    
     8    5    6 1    
     9    5   44 1    
    10    5   45 1    
    11    6    7 1    
    12    6   46 1    
    13    6   47 1    
    14    7    8 1    
    15    7   48 1    
    16    7   66 1    
    17    8    9 1    
    18    8   49 1    
    19    8   50 1    
    20    9   13 1    
    21    9   10 2    
    22   10   11 1    
    23   10   51 1    
    24   11   12 2    
    25   11   52 1    
    26   12   13 1    
    27   12   14 1    
    28   14   19 ar   
    29   14   15 ar   
    30   15   53 1    
    31   15   16 ar   
    32   16   54 1    
    33   16   17 ar   
    34   17   18 ar   
    35   17   23 ar   
    36   18   20 ar   
    37   18   19 ar   
    38   19   55 1    
    39   20   24 2    
    40   20   21 ar   
    41   21   22 ar   
    42   22   23 ar   
    43   22   56 1    
    44   24   25 1    
    45   25   30 ar   
    46   25   26 ar   
    47   26   27 ar   
    48   26   57 1    
    49   27   28 ar   
    50   27   58 1    
    51   28   29 ar   
    52   28   32 1    
    53   29   30 ar   
    54   29   31 1    
    55   30   59 1    
    56   32   33 1    
    57   33   34 1    
    58   33   60 1    
    59   33   61 1    
    60   34   39 ar   
    61   34   35 ar   
    62   35   36 ar   
    63   35   62 1    
    64   36   37 ar   
    65   36   63 1    
    66   37   38 ar   
    67   37   64 1    
    68   38   39 ar   
    69   38   40 1    
    70   39   65 1    
@<TRIPOS>SUBSTRUCTURE
     1 LAP         1 GROUP             0       ****    0 ROOT    
@<TRIPOS>MOLECULE
~{N}-[3-chloro-4-[(3-fluorophenyl)methoxy]phenyl]-6-[5-[(2-methylsulfonylethylamino)methyl]-2-furyl]quinazolin-4-amine
67   71    1
SMALL
USER_CHARGES


@<TRIPOS>ATOM
      1 C1          2.8506  -11.3702   -1.0877 C.3       1 LAP        -0.3611 
      2 S1          3.2008  -10.0955   -2.2736 S.o2      1 LAP         1.3300 
      3 O1          2.5505  -10.4562   -3.5182 O.2       1 LAP        -0.6497 
      4 O2          4.6239   -9.8228   -2.2251 O.2       1 LAP        -0.6497 
      5 C2          2.3585   -8.6927   -1.6101 C.3       1 LAP        -0.3273 
      6 C3          2.5220   -7.4588   -2.4767 C.3       1 LAP         0.1953 
      7 N1          1.8258   -6.3040   -1.9259 N.3       1 LAP        -0.8224 
      8 C4          1.9979   -5.1512   -2.7666 C.3       1 LAP         0.1361 
      9 C5          1.3037   -3.9715   -2.2312 C.2       1 LAP         0.2446 
     10 C6          0.0344   -3.4694   -2.4006 C.2       1 LAP        -0.2329 
     11 C7         -0.0332   -2.2969   -1.6108 C.2       1 LAP        -0.2458 
     12 C8          1.1996   -2.1662   -1.0148 C.2       1 LAP         0.2973 
     13 O3          2.0203   -3.1829   -1.3879 O.3       1 LAP        -0.3614 
     14 C9          1.7781   -1.2046   -0.1090 C.ar      1 LAP        -0.1323 
     15 C10         1.0259   -0.1228    0.3350 C.ar      1 LAP        -0.0802 
     16 C11         1.5879    0.8085    1.2132 C.ar      1 LAP        -0.1796 
     17 C12         2.8996    0.6850    1.6650 C.ar      1 LAP         0.4386 
     18 C13         3.6493   -0.4117    1.2094 C.ar      1 LAP        -0.2903 
     19 C14         3.0913   -1.3524    0.3263 C.ar      1 LAP        -0.0772 
     20 C15         4.9553   -0.5013    1.6825 C.ar      1 LAP         0.7090 
     21 N2          5.5107    0.3871    2.5281 N.pl3     1 LAP        -0.7524 
     22 C16         4.7000    1.3925    2.8954 C.ar      1 LAP         0.6680 
     23 N3          3.4231    1.5906    2.5098 N.ar      1 LAP        -0.7056 
     24 N4          5.7734   -1.5812    1.2667 N.pl3     1 LAP        -0.7607 
     25 C17         6.8294   -2.2643    1.8904 C.ar      1 LAP         0.1646 
     26 C18         7.8468   -2.8277    1.1203 C.ar      1 LAP        -0.1651 
     27 C19         8.8963   -3.5062    1.7398 C.ar      1 LAP        -0.1272 
     28 C20         8.9283   -3.6214    3.1296 C.ar      1 LAP         0.0785 
     29 C21         7.9109   -3.0580    3.8997 C.ar      1 LAP         0.0334 
     30 C22         6.8614   -2.3795    3.2801 C.ar      1 LAP        -0.1275 
     31 Cl1         7.9256   -3.1856    5.6201 Cl        1 LAP        -0.0662 
     32 O4          9.9665   -4.2886    3.7083 O.3       1 LAP        -0.3216 
     33 C23        10.1403   -5.6563    3.3445 C.3       1 LAP         0.1743 
     34 C24        10.7494   -6.3901    4.5002 C.ar      1 LAP        -0.0678 
     35 C25        12.1365   -6.4805    4.6159 C.ar      1 LAP        -0.1179 
     36 C26        12.7035   -7.1648    5.6911 C.ar      1 LAP        -0.1096 
     37 C27        11.8834   -7.7587    6.6505 C.ar      1 LAP        -0.1556 
     38 C28        10.4962   -7.6683    6.5346 C.ar      1 LAP         0.1205 
     39 C29         9.9292   -6.9840    5.4594 C.ar      1 LAP        -0.1431 
     40 F1          9.7081   -8.2384    7.4556 F         1 LAP        -0.1415 
     41 H1          3.3327  -11.1229   -0.1304 H         1 LAP         0.1178 
     42 H2          3.2392  -12.3309   -1.4565 H         1 LAP         0.1178 
     43 H3          1.7630  -11.4463   -0.9416 H         1 LAP         0.1178 
     44 H4          1.2837   -8.9135   -1.5319 H         1 LAP         0.1159 
     45 H5          2.7591   -8.4628   -0.6118 H         1 LAP         0.1159 
     46 H6          3.5897   -7.2072   -2.5587 H         1 LAP         0.0527 
     47 H7          2.1142   -7.6578   -3.4788 H         1 LAP         0.0527 
     48 H8          0.7514   -6.5267   -1.8474 H         1 LAP         0.3662 
     49 H9          3.0687   -4.9127   -2.8471 H         1 LAP         0.0578 
     50 H10         1.5933   -5.3634   -3.7672 H         1 LAP         0.0578 
     51 H11        -0.7466   -3.8929   -3.0159 H         1 LAP         0.1706 
     52 H12        -0.8783   -1.6333   -1.4936 H         1 LAP         0.1602 
     53 H13        -0.0025    0.0142    0.0088 H         1 LAP         0.1525 
     54 H14         0.9780    1.6463    1.5460 H         1 LAP         0.1593 
     55 H15         3.6726   -2.2021   -0.0265 H         1 LAP         0.1388 
     56 H16         5.1159    2.1256    3.5759 H         1 LAP         0.0574 
     57 H17         5.6227   -2.0358    0.2764 H         1 LAP         0.4476 
     58 H18         7.8322   -2.7426    0.0368 H         1 LAP         0.1367 
     59 H19         9.6860   -3.9421    1.1337 H         1 LAP         0.1467 
     60 H20         6.0661   -1.9376    3.8768 H         1 LAP         0.1660 
     61 H21         9.1633   -6.0968    3.0967 H         1 LAP         0.0455 
     62 H22        10.8044   -5.7216    2.4700 H         1 LAP         0.0455 
     63 H23        12.7838   -6.0208    3.8738 H         1 LAP         0.1428 
     64 H24        13.7836   -7.2347    5.7817 H         1 LAP         0.1398 
     65 H25        12.3237   -8.2922    7.4875 H         1 LAP         0.1494 
     66 H26         8.8475   -6.9190    5.3775 H         1 LAP         0.1501 
     67 H67         6.5505    0.2535    2.8612 H         1 LAP         0.0000 
@<TRIPOS>BOND
     1    1    2 1    
     2    1   41 1    
     3    1   42 1    
     4    1   43 1    
     5    2    3 2    
     6    2    4 2    
     7    2    5 1    
     8    5    6 1    
     9    5   44 1    
    10    5   45 1    
    11    6    7 1    
    12    6   46 1    
    13    6   47 1    
    14    7    8 1    
    15    7   48 1    
    16    8    9 1    
    17    8   49 1    
    18    8   50 1    
    19    9   13 1    
    20    9   10 2    
    21   10   11 1    
    22   10   51 1    
    23   11   12 2    
    24   11   52 1    
    25   12   13 1    
    26   12   14 1    
    27   14   19 ar   
    28   14   15 ar   
    29   15   16 ar   
    30   15   53 1    
    31   16   17 ar   
    32   16   54 1    
    33   17   23 ar   
    34   17   18 ar   
    35   18   19 ar   
    36   18   20 ar   
    37   19   55 1    
    38   20   21 ar   
    39   20   24 1    
    40   21   22 ar   
    41   21   67 1    
    42   22   23 ar   
    43   22   56 1    
    44   24   25 1    
    45   24   57 1    
    46   25   30 ar   
    47   25   26 ar   
    48   26   27 ar   
    49   26   58 1    
    50   27   28 ar   
    51   27   59 1    
    52   28   29 ar   
    53   28   32 1    
    54   29   30 ar   
    55   29   31 1    
    56   30   60 1    
    57   32   33 1    
    58   33   34 1    
    59   33   61 1    
    60   33   62 1    
    61   34   39 ar   
    62   34   35 ar   
    63   35   36 ar   
    64   35   63 1    
    65   36   37 ar   
    66   36   64 1    
    67   37   38 ar   
    68   37   65 1    
    69   38   39 ar   
    70   38   40 1    
    71   39   66 1    
@<TRIPOS>SUBSTRUCTURE
     1 LAP         1 GROUP             0       ****    0 ROOT    
@<TRIPOS>MOLECULE
~{N}-[3-chloro-4-[(3-fluorophenyl)methoxy]phenyl]-6-[5-[(2-methylsulfonylethylamino)methyl]-2-furyl]quinazolin-4-amine
67   71    1
SMALL
USER_CHARGES


@<TRIPOS>ATOM
      1 C1          2.8503  -11.3698   -1.0891 C.3       1 LAP        -0.3611 
      2 S1          3.2007  -10.0950   -2.2748 S.o2      1 LAP         1.3300 
      3 O1          2.5506  -10.4556   -3.5196 O.2       1 LAP        -0.6497 
      4 O2          4.6239   -9.8224   -2.2261 O.2       1 LAP        -0.6497 
      5 C2          2.3584   -8.6923   -1.6113 C.3       1 LAP        -0.3273 
      6 C3          2.5222   -7.4583   -2.4777 C.3       1 LAP         0.1953 
      7 N1          1.8259   -6.3035   -1.9269 N.4       1 LAP        -0.8224 
      8 C4          1.9983   -5.1506   -2.7675 C.3       1 LAP         0.1361 
      9 C5          1.3040   -3.9709   -2.2320 C.2       1 LAP         0.2446 
     10 C6          0.0348   -3.4687   -2.4016 C.2       1 LAP        -0.2329 
     11 C7         -0.0328   -2.2963   -1.6117 C.2       1 LAP        -0.2458 
     12 C8          1.1999   -2.1657   -1.0155 C.2       1 LAP         0.2973 
     13 O3          2.0206   -3.1825   -1.3885 O.3       1 LAP        -0.3614 
     14 C9          1.7783   -1.2043   -0.1094 C.ar      1 LAP        -0.1323 
     15 C10         1.0260   -0.1225    0.3346 C.ar      1 LAP        -0.0802 
     16 C11         1.5879    0.8085    1.2133 C.ar      1 LAP        -0.1796 
     17 C12         2.8996    0.6849    1.6651 C.ar      1 LAP         0.4386 
     18 C13         3.6493   -0.4117    1.2094 C.ar      1 LAP        -0.2903 
     19 C14         3.0914   -1.3522    0.3260 C.ar      1 LAP        -0.0772 
     20 C15         4.9553   -0.5014    1.6826 C.ar      1 LAP         0.7090 
     21 N2          5.5107    0.3871    2.5281 N.pl3     1 LAP        -0.7524 
     22 C16         4.7000    1.3924    2.8955 C.ar      1 LAP         0.6680 
     23 N3          3.4230    1.5905    2.5099 N.2       1 LAP        -0.7056 
     24 N4          5.7734   -1.5812    1.2667 N.2       1 LAP        -0.7607 
     25 C17         5.8110   -2.3415    0.0872 C.ar      1 LAP         0.1646 
     26 C18         6.2282   -3.6718    0.1280 C.ar      1 LAP        -0.1651 
     27 C19         6.2653   -4.4275   -1.0438 C.ar      1 LAP        -0.1272 
     28 C20         5.8852   -3.8527   -2.2566 C.ar      1 LAP         0.0785 
     29 C21         5.4679   -2.5224   -2.2975 C.ar      1 LAP         0.0334 
     30 C22         5.4309   -1.7667   -1.1256 C.ar      1 LAP        -0.1275 
     31 Cl1         4.9925   -1.7865   -3.7837 Cl        1 LAP        -0.0662 
     32 O4          5.9300   -4.6149   -3.3858 O.3       1 LAP        -0.3216 
     33 C23         7.1986   -5.1510   -3.7551 C.3       1 LAP         0.1743 
     34 C24         7.2495   -5.2884   -5.2463 C.ar      1 LAP        -0.0678 
     35 C25         6.8273   -6.4716   -5.8525 C.ar      1 LAP        -0.1179 
     36 C26         6.8761   -6.5999   -7.2406 C.ar      1 LAP        -0.1096 
     37 C27         7.3470   -5.5451   -8.0225 C.ar      1 LAP        -0.1556 
     38 C28         7.7694   -4.3620   -7.4161 C.ar      1 LAP         0.1205 
     39 C29         7.7206   -4.2336   -6.0280 C.ar      1 LAP        -0.1431 
     40 F1          8.2218   -3.3487   -8.1664 F         1 LAP        -0.1415 
     41 H1          3.3323  -11.1227   -0.1318 H         1 LAP         0.1178 
     42 H2          3.2388  -12.3305   -1.4580 H         1 LAP         0.1178 
     43 H3          1.7626  -11.4459   -0.9432 H         1 LAP         0.1178 
     44 H4          1.2836   -8.9130   -1.5333 H         1 LAP         0.1159 
     45 H5          2.7589   -8.4625   -0.6129 H         1 LAP         0.1159 
     46 H6          3.5899   -7.2067   -2.5595 H         1 LAP         0.0527 
     47 H7          2.1145   -7.6572   -3.4799 H         1 LAP         0.0527 
     48 H8          0.7516   -6.5261   -1.8486 H         1 LAP         0.3662 
     49 H9          3.0691   -4.9122   -2.8478 H         1 LAP         0.0578 
     50 H10         1.5938   -5.3626   -3.7682 H         1 LAP         0.0578 
     51 H11        -0.7461   -3.8921   -3.0171 H         1 LAP         0.1706 
     52 H12        -0.8779   -1.6327   -1.4945 H         1 LAP         0.1602 
     53 H13         0.0818   -0.0111    0.0247 H         1 LAP         0.1525 
     54 H14         1.0455    1.5859    1.5318 H         1 LAP         0.1593 
     55 H15         3.6384   -2.1277    0.0107 H         1 LAP         0.1388 
     56 H16         5.1383    2.0359    3.5230 H         1 LAP         0.0574 
     57 H17         6.5389    0.3398    2.9162 H         1 LAP         0.4476 
     58 H18         6.5253   -4.1298    1.0679 H         1 LAP         0.1367 
     59 H19         6.5908   -5.4636   -1.0046 H         1 LAP         0.1467 
     60 H20         5.1052   -0.7289   -1.1525 H         1 LAP         0.1660 
     61 H21         7.9958   -4.4734   -3.4159 H         1 LAP         0.0455 
     62 H22         7.3308   -6.1369   -3.2854 H         1 LAP         0.0455 
     63 H23         6.4584   -7.2988   -5.2519 H         1 LAP         0.1428 
     64 H24         6.5467   -7.5209   -7.7129 H         1 LAP         0.1398 
     65 H25         7.3860   -5.6442   -9.1031 H         1 LAP         0.1494 
     66 H26         8.0519   -3.3081   -5.5646 H         1 LAP         0.1501 
     67 H67         2.2269   -6.0756   -0.9283 H         1 LAP         0.0000 
@<TRIPOS>BOND
     1    1    2 1    
     2    1   41 1    
     3    1   42 1    
     4    1   43 1    
     5    2    3 2    
     6    2    4 2    
     7    2    5 1    
     8    5    6 1    
     9    5   44 1    
    10    5   45 1    
    11    6    7 1    
    12    6   46 1    
    13    6   47 1    
    14    7    8 1    
    15    7   48 1    
    16    7   67 1    
    17    8    9 1    
    18    8   49 1    
    19    8   50 1    
    20    9   13 1    
    21    9   10 2    
    22   10   11 1    
    23   10   51 1    
    24   11   12 2    
    25   11   52 1    
    26   12   13 1    
    27   12   14 1    
    28   14   19 ar   
    29   14   15 ar   
    30   15   53 1    
    31   15   16 ar   
    32   16   54 1    
    33   16   17 ar   
    34   17   18 ar   
    35   17   23 ar   
    36   18   20 ar   
    37   18   19 ar   
    38   19   55 1    
    39   20   24 2    
    40   20   21 ar   
    41   21   22 ar   
    42   21   57 1    
    43   22   23 ar   
    44   22   56 1    
    45   24   25 1    
    46   25   30 ar   
    47   25   26 ar   
    48   26   27 ar   
    49   26   58 1    
    50   27   28 ar   
    51   27   59 1    
    52   28   29 ar   
    53   28   32 1    
    54   29   30 ar   
    55   29   31 1    
    56   30   60 1    
    57   32   33 1    
    58   33   34 1    
    59   33   61 1    
    60   33   62 1    
    61   34   39 ar   
    62   34   35 ar   
    63   35   36 ar   
    64   35   63 1    
    65   36   37 ar   
    66   36   64 1    
    67   37   38 ar   
    68   37   65 1    
    69   38   39 ar   
    70   38   40 1    
    71   39   66 1    
@<TRIPOS>SUBSTRUCTURE
     1 LAP         1 GROUP             0       ****    0 ROOT    
@<TRIPOS>MOLECULE
~{N}-[3-chloro-4-[(3-fluorophenyl)methoxy]phenyl]-6-[5-[(2-methylsulfonylethylamino)methyl]-2-furyl]quinazolin-4-amine
67   71    1
SMALL
USER_CHARGES


@<TRIPOS>ATOM
      1 C1          2.8503  -11.3698   -1.0891 C.3       1 LAP        -0.3611 
      2 S1          3.2007  -10.0950   -2.2748 S.o2      1 LAP         1.3300 
      3 O1          2.5506  -10.4556   -3.5196 O.2       1 LAP        -0.6497 
      4 O2          4.6239   -9.8224   -2.2261 O.2       1 LAP        -0.6497 
      5 C2          2.3584   -8.6923   -1.6113 C.3       1 LAP        -0.3273 
      6 C3          2.5222   -7.4583   -2.4777 C.3       1 LAP         0.1953 
      7 N1          1.8259   -6.3035   -1.9269 N.4       1 LAP        -0.8224 
      8 C4          1.9983   -5.1506   -2.7675 C.3       1 LAP         0.1361 
      9 C5          1.3040   -3.9709   -2.2320 C.2       1 LAP         0.2446 
     10 C6          0.0348   -3.4687   -2.4016 C.2       1 LAP        -0.2329 
     11 C7         -0.0328   -2.2963   -1.6117 C.2       1 LAP        -0.2458 
     12 C8          1.1999   -2.1657   -1.0155 C.2       1 LAP         0.2973 
     13 O3          2.0206   -3.1825   -1.3885 O.3       1 LAP        -0.3614 
     14 C9          1.7783   -1.2043   -0.1094 C.ar      1 LAP        -0.1323 
     15 C10         1.0260   -0.1225    0.3346 C.ar      1 LAP        -0.0802 
     16 C11         1.5879    0.8085    1.2133 C.ar      1 LAP        -0.1796 
     17 C12         2.8996    0.6849    1.6651 C.ar      1 LAP         0.4386 
     18 C13         3.6493   -0.4117    1.2094 C.ar      1 LAP        -0.2903 
     19 C14         3.0914   -1.3522    0.3260 C.ar      1 LAP        -0.0772 
     20 C15         4.9553   -0.5014    1.6826 C.ar      1 LAP         0.7090 
     21 N2          5.5107    0.3871    2.5281 N.pl3     1 LAP        -0.7524 
     22 C16         4.7000    1.3924    2.8955 C.ar      1 LAP         0.6680 
     23 N3          3.4230    1.5905    2.5099 N.2       1 LAP        -0.7056 
     24 N4          5.7734   -1.5812    1.2667 N.2       1 LAP        -0.7607 
     25 C17         6.8294   -2.2643    1.8904 C.ar      1 LAP         0.1646 
     26 C18         7.8468   -2.8276    1.1202 C.ar      1 LAP        -0.1651 
     27 C19         8.8963   -3.5062    1.7397 C.ar      1 LAP        -0.1272 
     28 C20         8.9283   -3.6215    3.1295 C.ar      1 LAP         0.0785 
     29 C21         7.9109   -3.0582    3.8996 C.ar      1 LAP         0.0334 
     30 C22         6.8614   -2.3796    3.2801 C.ar      1 LAP        -0.1275 
     31 Cl1         7.9256   -3.1859    5.6200 Cl        1 LAP        -0.0662 
     32 O4          9.9665   -4.2887    3.7081 O.3       1 LAP        -0.3216 
     33 C23        10.1404   -5.6564    3.3442 C.3       1 LAP         0.1743 
     34 C24        10.7495   -6.3902    4.4999 C.ar      1 LAP        -0.0678 
     35 C25        12.1366   -6.4806    4.6156 C.ar      1 LAP        -0.1179 
     36 C26        12.7036   -7.1650    5.6907 C.ar      1 LAP        -0.1096 
     37 C27        11.8835   -7.7590    6.6501 C.ar      1 LAP        -0.1556 
     38 C28        10.4963   -7.6686    6.5342 C.ar      1 LAP         0.1205 
     39 C29         9.9293   -6.9842    5.4590 C.ar      1 LAP        -0.1431 
     40 F1          9.7082   -8.2388    7.4551 F         1 LAP        -0.1415 
     41 H1          3.3323  -11.1227   -0.1318 H         1 LAP         0.1178 
     42 H2          3.2388  -12.3305   -1.4580 H         1 LAP         0.1178 
     43 H3          1.7626  -11.4459   -0.9432 H         1 LAP         0.1178 
     44 H4          1.2836   -8.9130   -1.5333 H         1 LAP         0.1159 
     45 H5          2.7589   -8.4625   -0.6129 H         1 LAP         0.1159 
     46 H6          3.5899   -7.2067   -2.5595 H         1 LAP         0.0527 
     47 H7          2.1145   -7.6572   -3.4799 H         1 LAP         0.0527 
     48 H8          0.7516   -6.5261   -1.8486 H         1 LAP         0.3662 
     49 H9          3.0691   -4.9122   -2.8478 H         1 LAP         0.0578 
     50 H10         1.5938   -5.3626   -3.7682 H         1 LAP         0.0578 
     51 H11        -0.7461   -3.8921   -3.0171 H         1 LAP         0.1706 
     52 H12        -0.8779   -1.6327   -1.4945 H         1 LAP         0.1602 
     53 H13         0.0818   -0.0111    0.0247 H         1 LAP         0.1525 
     54 H14         1.0455    1.5859    1.5318 H         1 LAP         0.1593 
     55 H15         3.6384   -2.1277    0.0107 H         1 LAP         0.1388 
     56 H16         5.1383    2.0359    3.5230 H         1 LAP         0.0574 
     57 H17         6.5389    0.3398    2.9162 H         1 LAP         0.4476 
     58 H18         7.8322   -2.7424    0.0367 H         1 LAP         0.1367 
     59 H19         9.6861   -3.9420    1.1335 H         1 LAP         0.1467 
     60 H20         6.0661   -1.9378    3.8768 H         1 LAP         0.1660 
     61 H21         9.1634   -6.0968    3.0963 H         1 LAP         0.0455 
     62 H22        10.8045   -5.7216    2.4697 H         1 LAP         0.0455 
     63 H23        12.7839   -6.0208    3.8735 H         1 LAP         0.1428 
     64 H24        13.7837   -7.2349    5.7813 H         1 LAP         0.1398 
     65 H25        12.3238   -8.2925    7.4870 H         1 LAP         0.1494 
     66 H26         8.8476   -6.9193    5.3771 H         1 LAP         0.1501 
     67 H67         2.2269   -6.0756   -0.9283 H         1 LAP         0.0000 
@<TRIPOS>BOND
     1    1    2 1    
     2    1   41 1    
     3    1   42 1    
     4    1   43 1    
     5    2    3 2    
     6    2    4 2    
     7    2    5 1    
     8    5    6 1    
     9    5   44 1    
    10    5   45 1    
    11    6    7 1    
    12    6   46 1    
    13    6   47 1    
    14    7    8 1    
    15    7   48 1    
    16    7   67 1    
    17    8    9 1    
    18    8   49 1    
    19    8   50 1    
    20    9   13 1    
    21    9   10 2    
    22   10   11 1    
    23   10   51 1    
    24   11   12 2    
    25   11   52 1    
    26   12   13 1    
    27   12   14 1    
    28   14   19 ar   
    29   14   15 ar   
    30   15   53 1    
    31   15   16 ar   
    32   16   54 1    
    33   16   17 ar   
    34   17   18 ar   
    35   17   23 ar   
    36   18   20 ar   
    37   18   19 ar   
    38   19   55 1    
    39   20   24 2    
    40   20   21 ar   
    41   21   22 ar   
    42   21   57 1    
    43   22   23 ar   
    44   22   56 1    
    45   24   25 1    
    46   25   30 ar   
    47   25   26 ar   
    48   26   27 ar   
    49   26   58 1    
    50   27   28 ar   
    51   27   59 1    
    52   28   29 ar   
    53   28   32 1    
    54   29   30 ar   
    55   29   31 1    
    56   30   60 1    
    57   32   33 1    
    58   33   34 1    
    59   33   61 1    
    60   33   62 1    
    61   34   39 ar   
    62   34   35 ar   
    63   35   36 ar   
    64   35   63 1    
    65   36   37 ar   
    66   36   64 1    
    67   37   38 ar   
    68   37   65 1    
    69   38   39 ar   
    70   38   40 1    
    71   39   66 1    
@<TRIPOS>SUBSTRUCTURE
     1 LAP         1 GROUP             0       ****    0 ROOT    
@<TRIPOS>MOLECULE
~{N}-[3-chloro-4-[(3-fluorophenyl)methoxy]phenyl]-6-[5-[(2-methylsulfonylethylamino)methyl]-2-furyl]quinazolin-4-amine
67   71    1
SMALL
USER_CHARGES


@<TRIPOS>ATOM
      1 C1          2.8503  -11.3698   -1.0891 C.3       1 LAP        -0.3611 
      2 S1          3.2007  -10.0950   -2.2748 S.o2      1 LAP         1.3300 
      3 O1          2.5506  -10.4556   -3.5196 O.2       1 LAP        -0.6497 
      4 O2          4.6239   -9.8224   -2.2261 O.2       1 LAP        -0.6497 
      5 C2          2.3584   -8.6923   -1.6113 C.3       1 LAP        -0.3273 
      6 C3          2.5222   -7.4583   -2.4777 C.3       1 LAP         0.1953 
      7 N1          1.8259   -6.3035   -1.9269 N.4       1 LAP        -0.8224 
      8 C4          1.9983   -5.1506   -2.7675 C.3       1 LAP         0.1361 
      9 C5          1.3040   -3.9709   -2.2320 C.2       1 LAP         0.2446 
     10 C6          0.0348   -3.4687   -2.4016 C.2       1 LAP        -0.2329 
     11 C7         -0.0328   -2.2963   -1.6117 C.2       1 LAP        -0.2458 
     12 C8          1.1999   -2.1657   -1.0155 C.2       1 LAP         0.2973 
     13 O3          2.0206   -3.1825   -1.3885 O.3       1 LAP        -0.3614 
     14 C9          1.7783   -1.2043   -0.1094 C.ar      1 LAP        -0.1323 
     15 C10         1.0260   -0.1225    0.3346 C.ar      1 LAP        -0.0802 
     16 C11         1.5879    0.8085    1.2133 C.ar      1 LAP        -0.1796 
     17 C12         2.8996    0.6849    1.6651 C.ar      1 LAP         0.4386 
     18 C13         3.6493   -0.4117    1.2094 C.ar      1 LAP        -0.2903 
     19 C14         3.0914   -1.3522    0.3260 C.ar      1 LAP        -0.0772 
     20 C15         4.9553   -0.5014    1.6826 C.ar      1 LAP         0.7090 
     21 N2          5.5107    0.3871    2.5281 N.2       1 LAP        -0.7524 
     22 C16         4.7000    1.3924    2.8955 C.ar      1 LAP         0.6680 
     23 N3          3.4230    1.5905    2.5099 N.pl3     1 LAP        -0.7056 
     24 N4          5.7734   -1.5812    1.2667 N.2       1 LAP        -0.7607 
     25 C17         5.8110   -2.3415    0.0872 C.ar      1 LAP         0.1646 
     26 C18         6.2282   -3.6718    0.1280 C.ar      1 LAP        -0.1651 
     27 C19         6.2653   -4.4275   -1.0438 C.ar      1 LAP        -0.1272 
     28 C20         5.8852   -3.8527   -2.2566 C.ar      1 LAP         0.0785 
     29 C21         5.4679   -2.5224   -2.2975 C.ar      1 LAP         0.0334 
     30 C22         5.4309   -1.7667   -1.1256 C.ar      1 LAP        -0.1275 
     31 Cl1         4.9925   -1.7865   -3.7837 Cl        1 LAP        -0.0662 
     32 O4          5.9300   -4.6149   -3.3858 O.3       1 LAP        -0.3216 
     33 C23         7.1986   -5.1510   -3.7551 C.3       1 LAP         0.1743 
     34 C24         7.2495   -5.2884   -5.2463 C.ar      1 LAP        -0.0678 
     35 C25         6.8273   -6.4716   -5.8525 C.ar      1 LAP        -0.1179 
     36 C26         6.8761   -6.5999   -7.2406 C.ar      1 LAP        -0.1096 
     37 C27         7.3470   -5.5451   -8.0225 C.ar      1 LAP        -0.1556 
     38 C28         7.7694   -4.3620   -7.4161 C.ar      1 LAP         0.1205 
     39 C29         7.7206   -4.2336   -6.0280 C.ar      1 LAP        -0.1431 
     40 F1          8.2218   -3.3487   -8.1664 F         1 LAP        -0.1415 
     41 H1          3.3323  -11.1227   -0.1318 H         1 LAP         0.1178 
     42 H2          3.2388  -12.3305   -1.4580 H         1 LAP         0.1178 
     43 H3          1.7626  -11.4459   -0.9432 H         1 LAP         0.1178 
     44 H4          1.2836   -8.9130   -1.5333 H         1 LAP         0.1159 
     45 H5          2.7589   -8.4625   -0.6129 H         1 LAP         0.1159 
     46 H6          3.5899   -7.2067   -2.5595 H         1 LAP         0.0527 
     47 H7          2.1145   -7.6572   -3.4799 H         1 LAP         0.0527 
     48 H8          0.7516   -6.5261   -1.8486 H         1 LAP         0.3662 
     49 H9          3.0691   -4.9122   -2.8478 H         1 LAP         0.0578 
     50 H10         1.5938   -5.3626   -3.7682 H         1 LAP         0.0578 
     51 H11        -0.7461   -3.8921   -3.0171 H         1 LAP         0.1706 
     52 H12        -0.8779   -1.6327   -1.4945 H         1 LAP         0.1602 
     53 H13         0.0818   -0.0111    0.0247 H         1 LAP         0.1525 
     54 H14         1.0455    1.5859    1.5318 H         1 LAP         0.1593 
     55 H15         3.6384   -2.1277    0.0107 H         1 LAP         0.1388 
     56 H16         5.0308    2.0980    3.5222 H         1 LAP         0.0574 
     57 H17         2.8140    2.4403    2.8518 H         1 LAP         0.4476 
     58 H18         6.5253   -4.1298    1.0679 H         1 LAP         0.1367 
     59 H19         6.5908   -5.4636   -1.0046 H         1 LAP         0.1467 
     60 H20         5.1052   -0.7289   -1.1525 H         1 LAP         0.1660 
     61 H21         7.9958   -4.4734   -3.4159 H         1 LAP         0.0455 
     62 H22         7.3308   -6.1369   -3.2854 H         1 LAP         0.0455 
     63 H23         6.4584   -7.2988   -5.2519 H         1 LAP         0.1428 
     64 H24         6.5467   -7.5209   -7.7129 H         1 LAP         0.1398 
     65 H25         7.3860   -5.6442   -9.1031 H         1 LAP         0.1494 
     66 H26         8.0519   -3.3081   -5.5646 H         1 LAP         0.1501 
     67 H67         2.2269   -6.0756   -0.9283 H         1 LAP         0.0000 
@<TRIPOS>BOND
     1    1    2 1    
     2    1   41 1    
     3    1   42 1    
     4    1   43 1    
     5    2    3 2    
     6    2    4 2    
     7    2    5 1    
     8    5    6 1    
     9    5   44 1    
    10    5   45 1    
    11    6    7 1    
    12    6   46 1    
    13    6   47 1    
    14    7    8 1    
    15    7   48 1    
    16    7   67 1    
    17    8    9 1    
    18    8   49 1    
    19    8   50 1    
    20    9   13 1    
    21    9   10 2    
    22   10   11 1    
    23   10   51 1    
    24   11   12 2    
    25   11   52 1    
    26   12   13 1    
    27   12   14 1    
    28   14   19 ar   
    29   14   15 ar   
    30   15   53 1    
    31   15   16 ar   
    32   16   54 1    
    33   16   17 ar   
    34   17   18 ar   
    35   17   23 ar   
    36   18   20 ar   
    37   18   19 ar   
    38   19   55 1    
    39   20   24 2    
    40   20   21 ar   
    41   21   22 ar   
    42   22   23 ar   
    43   22   56 1    
    44   23   57 1    
    45   24   25 1    
    46   25   30 ar   
    47   25   26 ar   
    48   26   27 ar   
    49   26   58 1    
    50   27   28 ar   
    51   27   59 1    
    52   28   29 ar   
    53   28   32 1    
    54   29   30 ar   
    55   29   31 1    
    56   30   60 1    
    57   32   33 1    
    58   33   34 1    
    59   33   61 1    
    60   33   62 1    
    61   34   39 ar   
    62   34   35 ar   
    63   35   36 ar   
    64   35   63 1    
    65   36   37 ar   
    66   36   64 1    
    67   37   38 ar   
    68   37   65 1    
    69   38   39 ar   
    70   38   40 1    
    71   39   66 1    
@<TRIPOS>SUBSTRUCTURE
     1 LAP         1 GROUP             0       ****    0 ROOT    
@<TRIPOS>MOLECULE
~{N}-[3-chloro-4-[(3-fluorophenyl)methoxy]phenyl]-6-[5-[(2-methylsulfonylethylamino)methyl]-2-furyl]quinazolin-4-amine
65   69    1
SMALL
USER_CHARGES


@<TRIPOS>ATOM
      1 C1          2.8503  -11.3698   -1.0891 C.3       1 LAP        -0.3611 
      2 S1          3.2007  -10.0950   -2.2748 S.o2      1 LAP         1.3300 
      3 O1          2.5506  -10.4556   -3.5196 O.2       1 LAP        -0.6497 
      4 O2          4.6239   -9.8224   -2.2261 O.2       1 LAP        -0.6497 
      5 C2          2.3584   -8.6923   -1.6113 C.3       1 LAP        -0.3273 
      6 C3          2.5222   -7.4583   -2.4777 C.3       1 LAP         0.1953 
      7 N1          1.8259   -6.3035   -1.9269 N.3       1 LAP        -0.8224 
      8 C4          1.9983   -5.1506   -2.7675 C.3       1 LAP         0.1361 
      9 C5          1.3040   -3.9709   -2.2320 C.2       1 LAP         0.2446 
     10 C6          0.0348   -3.4687   -2.4016 C.2       1 LAP        -0.2329 
     11 C7         -0.0328   -2.2963   -1.6117 C.2       1 LAP        -0.2458 
     12 C8          1.1999   -2.1657   -1.0155 C.2       1 LAP         0.2973 
     13 O3          2.0206   -3.1825   -1.3885 O.3       1 LAP        -0.3614 
     14 C9          1.7783   -1.2043   -0.1094 C.ar      1 LAP        -0.1323 
     15 C10         1.0260   -0.1225    0.3346 C.ar      1 LAP        -0.0802 
     16 C11         1.5879    0.8085    1.2133 C.ar      1 LAP        -0.1796 
     17 C12         2.8996    0.6849    1.6651 C.ar      1 LAP         0.4386 
     18 C13         3.6493   -0.4117    1.2094 C.ar      1 LAP        -0.2903 
     19 C14         3.0914   -1.3522    0.3260 C.ar      1 LAP        -0.0772 
     20 C15         4.9553   -0.5014    1.6826 C.ar      1 LAP         0.7090 
     21 N2          5.5107    0.3871    2.5281 N.2       1 LAP        -0.7524 
     22 C16         4.7000    1.3924    2.8955 C.ar      1 LAP         0.6680 
     23 N3          3.4230    1.5905    2.5099 N.ar      1 LAP        -0.7056 
     24 N4          5.7734   -1.5812    1.2667 N.2       1 LAP        -0.7607 
     25 C17         6.8294   -2.2643    1.8904 C.ar      1 LAP         0.1646 
     26 C18         7.8468   -2.8276    1.1202 C.ar      1 LAP        -0.1651 
     27 C19         8.8963   -3.5062    1.7397 C.ar      1 LAP        -0.1272 
     28 C20         8.9283   -3.6215    3.1295 C.ar      1 LAP         0.0785 
     29 C21         7.9109   -3.0582    3.8996 C.ar      1 LAP         0.0334 
     30 C22         6.8614   -2.3796    3.2801 C.ar      1 LAP        -0.1275 
     31 Cl1         7.9256   -3.1859    5.6200 Cl        1 LAP        -0.0662 
     32 O4          9.9665   -4.2887    3.7081 O.3       1 LAP        -0.3216 
     33 C23        10.1404   -5.6564    3.3442 C.3       1 LAP         0.1743 
     34 C24        10.7495   -6.3902    4.4999 C.ar      1 LAP        -0.0678 
     35 C25        12.1366   -6.4806    4.6156 C.ar      1 LAP        -0.1179 
     36 C26        12.7036   -7.1650    5.6907 C.ar      1 LAP        -0.1096 
     37 C27        11.8835   -7.7590    6.6501 C.ar      1 LAP        -0.1556 
     38 C28        10.4963   -7.6686    6.5342 C.ar      1 LAP         0.1205 
     39 C29         9.9293   -6.9842    5.4590 C.ar      1 LAP        -0.1431 
     40 F1          9.7082   -8.2388    7.4551 F         1 LAP        -0.1415 
     41 H1          3.3323  -11.1227   -0.1318 H         1 LAP         0.1178 
     42 H2          3.2388  -12.3305   -1.4580 H         1 LAP         0.1178 
     43 H3          1.7626  -11.4459   -0.9432 H         1 LAP         0.1178 
     44 H4          1.2836   -8.9130   -1.5333 H         1 LAP         0.1159 
     45 H5          2.7589   -8.4625   -0.6129 H         1 LAP         0.1159 
     46 H6          3.5899   -7.2067   -2.5595 H         1 LAP         0.0527 
     47 H7          2.1145   -7.6572   -3.4799 H         1 LAP         0.0527 
     48 H8          0.7516   -6.5261   -1.8486 H         1 LAP         0.3662 
     49 H9          3.0691   -4.9122   -2.8478 H         1 LAP         0.0578 
     50 H10         1.5938   -5.3626   -3.7682 H         1 LAP         0.0578 
     51 H11        -0.7461   -3.8921   -3.0171 H         1 LAP         0.1706 
     52 H12        -0.8779   -1.6327   -1.4945 H         1 LAP         0.1602 
     53 H13         0.0818   -0.0111    0.0247 H         1 LAP         0.1525 
     54 H14         1.0455    1.5859    1.5318 H         1 LAP         0.1593 
     55 H15         3.6384   -2.1277    0.0107 H         1 LAP         0.1388 
     56 H16         5.1383    2.0359    3.5230 H         1 LAP         0.0574 
     57 H18         7.8322   -2.7424    0.0367 H         1 LAP         0.1367 
     58 H19         9.6861   -3.9420    1.1335 H         1 LAP         0.1467 
     59 H20         6.0661   -1.9378    3.8768 H         1 LAP         0.1660 
     60 H21         9.1634   -6.0968    3.0963 H         1 LAP         0.0455 
     61 H22        10.8045   -5.7216    2.4697 H         1 LAP         0.0455 
     62 H23        12.7839   -6.0208    3.8735 H         1 LAP         0.1428 
     63 H24        13.7837   -7.2349    5.7813 H         1 LAP         0.1398 
     64 H25        12.3238   -8.2925    7.4870 H         1 LAP         0.1494 
     65 H26         8.8476   -6.9193    5.3771 H         1 LAP         0.1501 
@<TRIPOS>BOND
     1    1    2 1    
     2    1   41 1    
     3    1   42 1    
     4    1   43 1    
     5    2    3 2    
     6    2    4 2    
     7    2    5 1    
     8    5    6 1    
     9    5   44 1    
    10    5   45 1    
    11    6    7 1    
    12    6   46 1    
    13    6   47 1    
    14    7    8 1    
    15    7   48 1    
    16    8    9 1    
    17    8   49 1    
    18    8   50 1    
    19    9   13 1    
    20    9   10 2    
    21   10   11 1    
    22   10   51 1    
    23   11   12 2    
    24   11   52 1    
    25   12   13 1    
    26   12   14 1    
    27   14   19 ar   
    28   14   15 ar   
    29   15   53 1    
    30   15   16 ar   
    31   16   54 1    
    32   16   17 ar   
    33   17   18 ar   
    34   17   23 ar   
    35   18   20 ar   
    36   18   19 ar   
    37   19   55 1    
    38   20   24 2    
    39   20   21 ar   
    40   21   22 ar   
    41   22   23 ar   
    42   22   56 1    
    43   24   25 1    
    44   25   30 ar   
    45   25   26 ar   
    46   26   27 ar   
    47   26   57 1    
    48   27   28 ar   
    49   27   58 1    
    50   28   29 ar   
    51   28   32 1    
    52   29   30 ar   
    53   29   31 1    
    54   30   59 1    
    55   32   33 1    
    56   33   34 1    
    57   33   60 1    
    58   33   61 1    
    59   34   39 ar   
    60   34   35 ar   
    61   35   36 ar   
    62   35   62 1    
    63   36   37 ar   
    64   36   63 1    
    65   37   38 ar   
    66   37   64 1    
    67   38   39 ar   
    68   38   40 1    
    69   39   65 1    
@<TRIPOS>SUBSTRUCTURE
     1 LAP         1 GROUP             0       ****    0 ROOT    
@<TRIPOS>MOLECULE
~{N}-[3-chloro-4-[(3-fluorophenyl)methoxy]phenyl]-6-[5-[(2-methylsulfonylethylamino)methyl]-2-furyl]quinazolin-4-amine
65   69    1
SMALL
USER_CHARGES


@<TRIPOS>ATOM
      1 C1          2.8503  -11.3698   -1.0891 C.3       1 LAP        -0.3611 
      2 S1          3.2007  -10.0950   -2.2748 S.o2      1 LAP         1.3300 
      3 O1          2.5506  -10.4556   -3.5196 O.2       1 LAP        -0.6497 
      4 O2          4.6239   -9.8224   -2.2261 O.2       1 LAP        -0.6497 
      5 C2          2.3584   -8.6923   -1.6113 C.3       1 LAP        -0.3273 
      6 C3          2.5222   -7.4583   -2.4777 C.3       1 LAP         0.1953 
      7 N1          1.8259   -6.3035   -1.9269 N.3       1 LAP        -0.8224 
      8 C4          1.9983   -5.1506   -2.7675 C.3       1 LAP         0.1361 
      9 C5          1.3040   -3.9709   -2.2320 C.2       1 LAP         0.2446 
     10 C6          0.0348   -3.4687   -2.4016 C.2       1 LAP        -0.2329 
     11 C7         -0.0328   -2.2963   -1.6117 C.2       1 LAP        -0.2458 
     12 C8          1.1999   -2.1657   -1.0155 C.2       1 LAP         0.2973 
     13 O3          2.0206   -3.1825   -1.3885 O.3       1 LAP        -0.3614 
     14 C9          1.7783   -1.2043   -0.1094 C.ar      1 LAP        -0.1323 
     15 C10         1.0260   -0.1225    0.3346 C.ar      1 LAP        -0.0802 
     16 C11         1.5879    0.8085    1.2133 C.ar      1 LAP        -0.1796 
     17 C12         2.8996    0.6849    1.6651 C.ar      1 LAP         0.4386 
     18 C13         3.6493   -0.4117    1.2094 C.ar      1 LAP        -0.2903 
     19 C14         3.0914   -1.3522    0.3260 C.ar      1 LAP        -0.0772 
     20 C15         4.9553   -0.5014    1.6826 C.ar      1 LAP         0.7090 
     21 N2          5.5107    0.3871    2.5281 N.2       1 LAP        -0.7524 
     22 C16         4.7000    1.3924    2.8955 C.ar      1 LAP         0.6680 
     23 N3          3.4230    1.5905    2.5099 N.ar      1 LAP        -0.7056 
     24 N4          5.7734   -1.5812    1.2667 N.2       1 LAP        -0.7607 
     25 C17         5.8110   -2.3415    0.0872 C.ar      1 LAP         0.1646 
     26 C18         6.2282   -3.6718    0.1280 C.ar      1 LAP        -0.1651 
     27 C19         6.2653   -4.4275   -1.0438 C.ar      1 LAP        -0.1272 
     28 C20         5.8852   -3.8527   -2.2566 C.ar      1 LAP         0.0785 
     29 C21         5.4679   -2.5224   -2.2975 C.ar      1 LAP         0.0334 
     30 C22         5.4309   -1.7667   -1.1256 C.ar      1 LAP        -0.1275 
     31 Cl1         4.9925   -1.7865   -3.7837 Cl        1 LAP        -0.0662 
     32 O4          5.9300   -4.6149   -3.3858 O.3       1 LAP        -0.3216 
     33 C23         7.1986   -5.1510   -3.7551 C.3       1 LAP         0.1743 
     34 C24         7.2495   -5.2884   -5.2463 C.ar      1 LAP        -0.0678 
     35 C25         6.8273   -6.4716   -5.8525 C.ar      1 LAP        -0.1179 
     36 C26         6.8761   -6.5999   -7.2406 C.ar      1 LAP        -0.1096 
     37 C27         7.3470   -5.5451   -8.0225 C.ar      1 LAP        -0.1556 
     38 C28         7.7694   -4.3620   -7.4161 C.ar      1 LAP         0.1205 
     39 C29         7.7206   -4.2336   -6.0280 C.ar      1 LAP        -0.1431 
     40 F1          8.2218   -3.3487   -8.1664 F         1 LAP        -0.1415 
     41 H1          3.3323  -11.1227   -0.1318 H         1 LAP         0.1178 
     42 H2          3.2388  -12.3305   -1.4580 H         1 LAP         0.1178 
     43 H3          1.7626  -11.4459   -0.9432 H         1 LAP         0.1178 
     44 H4          1.2836   -8.9130   -1.5333 H         1 LAP         0.1159 
     45 H5          2.7589   -8.4625   -0.6129 H         1 LAP         0.1159 
     46 H6          3.5899   -7.2067   -2.5595 H         1 LAP         0.0527 
     47 H7          2.1145   -7.6572   -3.4799 H         1 LAP         0.0527 
     48 H8          0.7516   -6.5261   -1.8486 H         1 LAP         0.3662 
     49 H9          3.0691   -4.9122   -2.8478 H         1 LAP         0.0578 
     50 H10         1.5938   -5.3626   -3.7682 H         1 LAP         0.0578 
     51 H11        -0.7461   -3.8921   -3.0171 H         1 LAP         0.1706 
     52 H12        -0.8779   -1.6327   -1.4945 H         1 LAP         0.1602 
     53 H13         0.0818   -0.0111    0.0247 H         1 LAP         0.1525 
     54 H14         1.0455    1.5859    1.5318 H         1 LAP         0.1593 
     55 H15         3.6384   -2.1277    0.0107 H         1 LAP         0.1388 
     56 H16         5.1383    2.0359    3.5230 H         1 LAP         0.0574 
     57 H18         6.5253   -4.1298    1.0679 H         1 LAP         0.1367 
     58 H19         6.5908   -5.4636   -1.0046 H         1 LAP         0.1467 
     59 H20         5.1052   -0.7289   -1.1525 H         1 LAP         0.1660 
     60 H21         7.9958   -4.4734   -3.4159 H         1 LAP         0.0455 
     61 H22         7.3308   -6.1369   -3.2854 H         1 LAP         0.0455 
     62 H23         6.4584   -7.2988   -5.2519 H         1 LAP         0.1428 
     63 H24         6.5467   -7.5209   -7.7129 H         1 LAP         0.1398 
     64 H25         7.3860   -5.6442   -9.1031 H         1 LAP         0.1494 
     65 H26         8.0519   -3.3081   -5.5646 H         1 LAP         0.1501 
@<TRIPOS>BOND
     1    1    2 1    
     2    1   41 1    
     3    1   42 1    
     4    1   43 1    
     5    2    3 2    
     6    2    4 2    
     7    2    5 1    
     8    5    6 1    
     9    5   44 1    
    10    5   45 1    
    11    6    7 1    
    12    6   46 1    
    13    6   47 1    
    14    7    8 1    
    15    7   48 1    
    16    8    9 1    
    17    8   49 1    
    18    8   50 1    
    19    9   13 1    
    20    9   10 2    
    21   10   11 1    
    22   10   51 1    
    23   11   12 2    
    24   11   52 1    
    25   12   13 1    
    26   12   14 1    
    27   14   19 ar   
    28   14   15 ar   
    29   15   53 1    
    30   15   16 ar   
    31   16   54 1    
    32   16   17 ar   
    33   17   18 ar   
    34   17   23 ar   
    35   18   20 ar   
    36   18   19 ar   
    37   19   55 1    
    38   20   24 2    
    39   20   21 ar   
    40   21   22 ar   
    41   22   23 ar   
    42   22   56 1    
    43   24   25 1    
    44   25   30 ar   
    45   25   26 ar   
    46   26   27 ar   
    47   26   57 1    
    48   27   28 ar   
    49   27   58 1    
    50   28   29 ar   
    51   28   32 1    
    52   29   30 ar   
    53   29   31 1    
    54   30   59 1    
    55   32   33 1    
    56   33   34 1    
    57   33   60 1    
    58   33   61 1    
    59   34   39 ar   
    60   34   35 ar   
    61   35   36 ar   
    62   35   62 1    
    63   36   37 ar   
    64   36   63 1    
    65   37   38 ar   
    66   37   64 1    
    67   38   39 ar   
    68   38   40 1    
    69   39   65 1    
@<TRIPOS>SUBSTRUCTURE
     1 LAP         1 GROUP             0       ****    0 ROOT    
@<TRIPOS>MOLECULE
~{N}-[3-chloro-4-[(3-fluorophenyl)methoxy]phenyl]-6-[5-[(2-methylsulfonylethylamino)methyl]-2-furyl]quinazolin-4-amine
67   71    1
SMALL
USER_CHARGES


@<TRIPOS>ATOM
      1 C1          2.8503  -11.3698   -1.0891 C.3       1 LAP        -0.3611 
      2 S1          3.2007  -10.0950   -2.2748 S.o2      1 LAP         1.3300 
      3 O1          2.5506  -10.4556   -3.5196 O.2       1 LAP        -0.6497 
      4 O2          4.6239   -9.8224   -2.2261 O.2       1 LAP        -0.6497 
      5 C2          2.3584   -8.6923   -1.6113 C.3       1 LAP        -0.3273 
      6 C3          2.5222   -7.4583   -2.4777 C.3       1 LAP         0.1953 
      7 N1          1.8259   -6.3035   -1.9269 N.4       1 LAP        -0.8224 
      8 C4          1.9983   -5.1506   -2.7675 C.3       1 LAP         0.1361 
      9 C5          1.3040   -3.9709   -2.2320 C.2       1 LAP         0.2446 
     10 C6          0.0348   -3.4687   -2.4016 C.2       1 LAP        -0.2329 
     11 C7         -0.0328   -2.2963   -1.6117 C.2       1 LAP        -0.2458 
     12 C8          1.1999   -2.1657   -1.0155 C.2       1 LAP         0.2973 
     13 O3          2.0206   -3.1825   -1.3885 O.3       1 LAP        -0.3614 
     14 C9          1.7783   -1.2043   -0.1094 C.ar      1 LAP        -0.1323 
     15 C10         1.0260   -0.1225    0.3346 C.ar      1 LAP        -0.0802 
     16 C11         1.5879    0.8085    1.2133 C.ar      1 LAP        -0.1796 
     17 C12         2.8996    0.6849    1.6651 C.ar      1 LAP         0.4386 
     18 C13         3.6493   -0.4117    1.2094 C.ar      1 LAP        -0.2903 
     19 C14         3.0914   -1.3522    0.3260 C.ar      1 LAP        -0.0772 
     20 C15         4.9553   -0.5014    1.6826 C.ar      1 LAP         0.7090 
     21 N2          5.5107    0.3871    2.5281 N.2       1 LAP        -0.7524 
     22 C16         4.7000    1.3924    2.8955 C.ar      1 LAP         0.6680 
     23 N3          3.4230    1.5905    2.5099 N.pl3     1 LAP        -0.7056 
     24 N4          5.7734   -1.5812    1.2667 N.2       1 LAP        -0.7607 
     25 C17         6.8294   -2.2643    1.8904 C.ar      1 LAP         0.1646 
     26 C18         7.8468   -2.8276    1.1202 C.ar      1 LAP        -0.1651 
     27 C19         8.8963   -3.5062    1.7397 C.ar      1 LAP        -0.1272 
     28 C20         8.9283   -3.6215    3.1295 C.ar      1 LAP         0.0785 
     29 C21         7.9109   -3.0582    3.8996 C.ar      1 LAP         0.0334 
     30 C22         6.8614   -2.3796    3.2801 C.ar      1 LAP        -0.1275 
     31 Cl1         7.9256   -3.1859    5.6200 Cl        1 LAP        -0.0662 
     32 O4          9.9665   -4.2887    3.7081 O.3       1 LAP        -0.3216 
     33 C23        10.1404   -5.6564    3.3442 C.3       1 LAP         0.1743 
     34 C24        10.7495   -6.3902    4.4999 C.ar      1 LAP        -0.0678 
     35 C25        12.1366   -6.4806    4.6156 C.ar      1 LAP        -0.1179 
     36 C26        12.7036   -7.1650    5.6907 C.ar      1 LAP        -0.1096 
     37 C27        11.8835   -7.7590    6.6501 C.ar      1 LAP        -0.1556 
     38 C28        10.4963   -7.6686    6.5342 C.ar      1 LAP         0.1205 
     39 C29         9.9293   -6.9842    5.4590 C.ar      1 LAP        -0.1431 
     40 F1          9.7082   -8.2388    7.4551 F         1 LAP        -0.1415 
     41 H1          3.3323  -11.1227   -0.1318 H         1 LAP         0.1178 
     42 H2          3.2388  -12.3305   -1.4580 H         1 LAP         0.1178 
     43 H3          1.7626  -11.4459   -0.9432 H         1 LAP         0.1178 
     44 H4          1.2836   -8.9130   -1.5333 H         1 LAP         0.1159 
     45 H5          2.7589   -8.4625   -0.6129 H         1 LAP         0.1159 
     46 H6          3.5899   -7.2067   -2.5595 H         1 LAP         0.0527 
     47 H7          2.1145   -7.6572   -3.4799 H         1 LAP         0.0527 
     48 H8          0.7516   -6.5261   -1.8486 H         1 LAP         0.3662 
     49 H9          3.0691   -4.9122   -2.8478 H         1 LAP         0.0578 
     50 H10         1.5938   -5.3626   -3.7682 H         1 LAP         0.0578 
     51 H11        -0.7461   -3.8921   -3.0171 H         1 LAP         0.1706 
     52 H12        -0.8779   -1.6327   -1.4945 H         1 LAP         0.1602 
     53 H13         0.0818   -0.0111    0.0247 H         1 LAP         0.1525 
     54 H14         1.0455    1.5859    1.5318 H         1 LAP         0.1593 
     55 H15         3.6384   -2.1277    0.0107 H         1 LAP         0.1388 
     56 H16         5.0308    2.0980    3.5222 H         1 LAP         0.0574 
     57 H17         2.8140    2.4403    2.8518 H         1 LAP         0.4476 
     58 H18         7.8322   -2.7424    0.0367 H         1 LAP         0.1367 
     59 H19         9.6861   -3.9420    1.1335 H         1 LAP         0.1467 
     60 H20         6.0661   -1.9378    3.8768 H         1 LAP         0.1660 
     61 H21         9.1634   -6.0968    3.0963 H         1 LAP         0.0455 
     62 H22        10.8045   -5.7216    2.4697 H         1 LAP         0.0455 
     63 H23        12.7839   -6.0208    3.8735 H         1 LAP         0.1428 
     64 H24        13.7837   -7.2349    5.7813 H         1 LAP         0.1398 
     65 H25        12.3238   -8.2925    7.4870 H         1 LAP         0.1494 
     66 H26         8.8476   -6.9193    5.3771 H         1 LAP         0.1501 
     67 H67         2.2269   -6.0756   -0.9283 H         1 LAP         0.0000 
@<TRIPOS>BOND
     1    1    2 1    
     2    1   41 1    
     3    1   42 1    
     4    1   43 1    
     5    2    3 2    
     6    2    4 2    
     7    2    5 1    
     8    5    6 1    
     9    5   44 1    
    10    5   45 1    
    11    6    7 1    
    12    6   46 1    
    13    6   47 1    
    14    7    8 1    
    15    7   48 1    
    16    7   67 1    
    17    8    9 1    
    18    8   49 1    
    19    8   50 1    
    20    9   13 1    
    21    9   10 2    
    22   10   11 1    
    23   10   51 1    
    24   11   12 2    
    25   11   52 1    
    26   12   13 1    
    27   12   14 1    
    28   14   19 ar   
    29   14   15 ar   
    30   15   53 1    
    31   15   16 ar   
    32   16   54 1    
    33   16   17 ar   
    34   17   18 ar   
    35   17   23 ar   
    36   18   20 ar   
    37   18   19 ar   
    38   19   55 1    
    39   20   24 2    
    40   20   21 ar   
    41   21   22 ar   
    42   22   23 ar   
    43   22   56 1    
    44   23   57 1    
    45   24   25 1    
    46   25   30 ar   
    47   25   26 ar   
    48   26   27 ar   
    49   26   58 1    
    50   27   28 ar   
    51   27   59 1    
    52   28   29 ar   
    53   28   32 1    
    54   29   30 ar   
    55   29   31 1    
    56   30   60 1    
    57   32   33 1    
    58   33   34 1    
    59   33   61 1    
    60   33   62 1    
    61   34   39 ar   
    62   34   35 ar   
    63   35   36 ar   
    64   35   63 1    
    65   36   37 ar   
    66   36   64 1    
    67   37   38 ar   
    68   37   65 1    
    69   38   39 ar   
    70   38   40 1    
    71   39   66 1    
@<TRIPOS>SUBSTRUCTURE
     1 LAP         1 GROUP             0       ****    0 ROOT    
@<TRIPOS>MOLECULE
~{N}-[3-chloro-4-[(3-fluorophenyl)methoxy]phenyl]-6-[5-[(2-methylsulfonylethylamino)methyl]-2-furyl]quinazolin-4-amine
66   70    1
SMALL
USER_CHARGES


@<TRIPOS>ATOM
      1 C1          2.8503  -11.3698   -1.0891 C.3       1 LAP        -0.3611 
      2 S1          3.2007  -10.0950   -2.2748 S.o2      1 LAP         1.3300 
      3 O1          2.5506  -10.4556   -3.5196 O.2       1 LAP        -0.6497 
      4 O2          4.6239   -9.8224   -2.2261 O.2       1 LAP        -0.6497 
      5 C2          2.3584   -8.6923   -1.6113 C.3       1 LAP        -0.3273 
      6 C3          2.5222   -7.4583   -2.4777 C.3       1 LAP         0.1953 
      7 N1          1.8259   -6.3035   -1.9269 N.3       1 LAP        -0.8224 
      8 C4          1.9983   -5.1506   -2.7675 C.3       1 LAP         0.1361 
      9 C5          1.3040   -3.9709   -2.2320 C.2       1 LAP         0.2446 
     10 C6          0.0348   -3.4687   -2.4016 C.2       1 LAP        -0.2329 
     11 C7         -0.0328   -2.2963   -1.6117 C.2       1 LAP        -0.2458 
     12 C8          1.1999   -2.1657   -1.0155 C.2       1 LAP         0.2973 
     13 O3          2.0206   -3.1825   -1.3885 O.3       1 LAP        -0.3614 
     14 C9          1.7783   -1.2043   -0.1094 C.ar      1 LAP        -0.1323 
     15 C10         1.0260   -0.1225    0.3346 C.ar      1 LAP        -0.0802 
     16 C11         1.5879    0.8085    1.2133 C.ar      1 LAP        -0.1796 
     17 C12         2.8996    0.6849    1.6651 C.ar      1 LAP         0.4386 
     18 C13         3.6493   -0.4117    1.2094 C.ar      1 LAP        -0.2903 
     19 C14         3.0914   -1.3522    0.3260 C.ar      1 LAP        -0.0772 
     20 C15         4.9553   -0.5014    1.6826 C.ar      1 LAP         0.7090 
     21 N2          5.5107    0.3871    2.5281 N.pl3     1 LAP        -0.7524 
     22 C16         4.7000    1.3924    2.8955 C.ar      1 LAP         0.6680 
     23 N3          3.4230    1.5905    2.5099 N.2       1 LAP        -0.7056 
     24 N4          5.7734   -1.5812    1.2667 N.2       1 LAP        -0.7607 
     25 C17         6.8294   -2.2643    1.8904 C.ar      1 LAP         0.1646 
     26 C18         7.8468   -2.8276    1.1202 C.ar      1 LAP        -0.1651 
     27 C19         8.8963   -3.5062    1.7397 C.ar      1 LAP        -0.1272 
     28 C20         8.9283   -3.6215    3.1295 C.ar      1 LAP         0.0785 
     29 C21         7.9109   -3.0582    3.8996 C.ar      1 LAP         0.0334 
     30 C22         6.8614   -2.3796    3.2801 C.ar      1 LAP        -0.1275 
     31 Cl1         7.9256   -3.1859    5.6200 Cl        1 LAP        -0.0662 
     32 O4          9.9665   -4.2887    3.7081 O.3       1 LAP        -0.3216 
     33 C23        10.1404   -5.6564    3.3442 C.3       1 LAP         0.1743 
     34 C24        10.7495   -6.3902    4.4999 C.ar      1 LAP        -0.0678 
     35 C25        12.1366   -6.4806    4.6156 C.ar      1 LAP        -0.1179 
     36 C26        12.7036   -7.1650    5.6907 C.ar      1 LAP        -0.1096 
     37 C27        11.8835   -7.7590    6.6501 C.ar      1 LAP        -0.1556 
     38 C28        10.4963   -7.6686    6.5342 C.ar      1 LAP         0.1205 
     39 C29         9.9293   -6.9842    5.4590 C.ar      1 LAP        -0.1431 
     40 F1          9.7082   -8.2388    7.4551 F         1 LAP        -0.1415 
     41 H1          3.3323  -11.1227   -0.1318 H         1 LAP         0.1178 
     42 H2          3.2388  -12.3305   -1.4580 H         1 LAP         0.1178 
     43 H3          1.7626  -11.4459   -0.9432 H         1 LAP         0.1178 
     44 H4          1.2836   -8.9130   -1.5333 H         1 LAP         0.1159 
     45 H5          2.7589   -8.4625   -0.6129 H         1 LAP         0.1159 
     46 H6          3.5899   -7.2067   -2.5595 H         1 LAP         0.0527 
     47 H7          2.1145   -7.6572   -3.4799 H         1 LAP         0.0527 
     48 H8          0.7516   -6.5261   -1.8486 H         1 LAP         0.3662 
     49 H9          3.0691   -4.9122   -2.8478 H         1 LAP         0.0578 
     50 H10         1.5938   -5.3626   -3.7682 H         1 LAP         0.0578 
     51 H11        -0.7461   -3.8921   -3.0171 H         1 LAP         0.1706 
     52 H12        -0.8779   -1.6327   -1.4945 H         1 LAP         0.1602 
     53 H13         0.0818   -0.0111    0.0247 H         1 LAP         0.1525 
     54 H14         1.0455    1.5859    1.5318 H         1 LAP         0.1593 
     55 H15         3.6384   -2.1277    0.0107 H         1 LAP         0.1388 
     56 H16         5.1383    2.0359    3.5230 H         1 LAP         0.0574 
     57 H17         6.5389    0.3398    2.9162 H         1 LAP         0.4476 
     58 H18         7.8322   -2.7424    0.0367 H         1 LAP         0.1367 
     59 H19         9.6861   -3.9420    1.1335 H         1 LAP         0.1467 
     60 H20         6.0661   -1.9378    3.8768 H         1 LAP         0.1660 
     61 H21         9.1634   -6.0968    3.0963 H         1 LAP         0.0455 
     62 H22        10.8045   -5.7216    2.4697 H         1 LAP         0.0455 
     63 H23        12.7839   -6.0208    3.8735 H         1 LAP         0.1428 
     64 H24        13.7837   -7.2349    5.7813 H         1 LAP         0.1398 
     65 H25        12.3238   -8.2925    7.4870 H         1 LAP         0.1494 
     66 H26         8.8476   -6.9193    5.3771 H         1 LAP         0.1501 
@<TRIPOS>BOND
     1    1    2 1    
     2    1   41 1    
     3    1   42 1    
     4    1   43 1    
     5    2    3 2    
     6    2    4 2    
     7    2    5 1    
     8    5    6 1    
     9    5   44 1    
    10    5   45 1    
    11    6    7 1    
    12    6   46 1    
    13    6   47 1    
    14    7    8 1    
    15    7   48 1    
    16    8    9 1    
    17    8   49 1    
    18    8   50 1    
    19    9   13 1    
    20    9   10 2    
    21   10   11 1    
    22   10   51 1    
    23   11   12 2    
    24   11   52 1    
    25   12   13 1    
    26   12   14 1    
    27   14   19 ar   
    28   14   15 ar   
    29   15   53 1    
    30   15   16 ar   
    31   16   54 1    
    32   16   17 ar   
    33   17   18 ar   
    34   17   23 ar   
    35   18   20 ar   
    36   18   19 ar   
    37   19   55 1    
    38   20   24 2    
    39   20   21 ar   
    40   21   22 ar   
    41   21   57 1    
    42   22   23 ar   
    43   22   56 1    
    44   24   25 1    
    45   25   30 ar   
    46   25   26 ar   
    47   26   27 ar   
    48   26   58 1    
    49   27   28 ar   
    50   27   59 1    
    51   28   29 ar   
    52   28   32 1    
    53   29   30 ar   
    54   29   31 1    
    55   30   60 1    
    56   32   33 1    
    57   33   34 1    
    58   33   61 1    
    59   33   62 1    
    60   34   39 ar   
    61   34   35 ar   
    62   35   36 ar   
    63   35   63 1    
    64   36   37 ar   
    65   36   64 1    
    66   37   38 ar   
    67   37   65 1    
    68   38   39 ar   
    69   38   40 1    
    70   39   66 1    
@<TRIPOS>SUBSTRUCTURE
     1 LAP         1 GROUP             0       ****    0 ROOT    
@<TRIPOS>MOLECULE
~{N}-[3-chloro-4-[(3-fluorophenyl)methoxy]phenyl]-6-[5-[(2-methylsulfonylethylamino)methyl]-2-furyl]quinazolin-4-amine
66   70    1
SMALL
USER_CHARGES


@<TRIPOS>ATOM
      1 C1          2.8503  -11.3698   -1.0891 C.3       1 LAP        -0.3611 
      2 S1          3.2007  -10.0950   -2.2748 S.o2      1 LAP         1.3300 
      3 O1          2.5506  -10.4556   -3.5196 O.2       1 LAP        -0.6497 
      4 O2          4.6239   -9.8224   -2.2261 O.2       1 LAP        -0.6497 
      5 C2          2.3584   -8.6923   -1.6113 C.3       1 LAP        -0.3273 
      6 C3          2.5222   -7.4583   -2.4777 C.3       1 LAP         0.1953 
      7 N1          1.8259   -6.3035   -1.9269 N.3       1 LAP        -0.8224 
      8 C4          1.9983   -5.1506   -2.7675 C.3       1 LAP         0.1361 
      9 C5          1.3040   -3.9709   -2.2320 C.2       1 LAP         0.2446 
     10 C6          0.0348   -3.4687   -2.4016 C.2       1 LAP        -0.2329 
     11 C7         -0.0328   -2.2963   -1.6117 C.2       1 LAP        -0.2458 
     12 C8          1.1999   -2.1657   -1.0155 C.2       1 LAP         0.2973 
     13 O3          2.0206   -3.1825   -1.3885 O.3       1 LAP        -0.3614 
     14 C9          1.7783   -1.2043   -0.1094 C.ar      1 LAP        -0.1323 
     15 C10         1.0260   -0.1225    0.3346 C.ar      1 LAP        -0.0802 
     16 C11         1.5879    0.8085    1.2133 C.ar      1 LAP        -0.1796 
     17 C12         2.8996    0.6849    1.6651 C.ar      1 LAP         0.4386 
     18 C13         3.6493   -0.4117    1.2094 C.ar      1 LAP        -0.2903 
     19 C14         3.0914   -1.3522    0.3260 C.ar      1 LAP        -0.0772 
     20 C15         4.9553   -0.5014    1.6826 C.ar      1 LAP         0.7090 
     21 N2          5.5107    0.3871    2.5281 N.pl3     1 LAP        -0.7524 
     22 C16         4.7000    1.3924    2.8955 C.ar      1 LAP         0.6680 
     23 N3          3.4230    1.5905    2.5099 N.2       1 LAP        -0.7056 
     24 N4          5.7734   -1.5812    1.2667 N.2       1 LAP        -0.7607 
     25 C17         5.8110   -2.3415    0.0872 C.ar      1 LAP         0.1646 
     26 C18         6.2282   -3.6718    0.1280 C.ar      1 LAP        -0.1651 
     27 C19         6.2653   -4.4275   -1.0438 C.ar      1 LAP        -0.1272 
     28 C20         5.8852   -3.8527   -2.2566 C.ar      1 LAP         0.0785 
     29 C21         5.4679   -2.5224   -2.2975 C.ar      1 LAP         0.0334 
     30 C22         5.4309   -1.7667   -1.1256 C.ar      1 LAP        -0.1275 
     31 Cl1         4.9925   -1.7865   -3.7837 Cl        1 LAP        -0.0662 
     32 O4          5.9300   -4.6149   -3.3858 O.3       1 LAP        -0.3216 
     33 C23         7.1986   -5.1510   -3.7551 C.3       1 LAP         0.1743 
     34 C24         7.2495   -5.2884   -5.2463 C.ar      1 LAP        -0.0678 
     35 C25         6.8273   -6.4716   -5.8525 C.ar      1 LAP        -0.1179 
     36 C26         6.8761   -6.5999   -7.2406 C.ar      1 LAP        -0.1096 
     37 C27         7.3470   -5.5451   -8.0225 C.ar      1 LAP        -0.1556 
     38 C28         7.7694   -4.3620   -7.4161 C.ar      1 LAP         0.1205 
     39 C29         7.7206   -4.2336   -6.0280 C.ar      1 LAP        -0.1431 
     40 F1          8.2218   -3.3487   -8.1664 F         1 LAP        -0.1415 
     41 H1          3.3323  -11.1227   -0.1318 H         1 LAP         0.1178 
     42 H2          3.2388  -12.3305   -1.4580 H         1 LAP         0.1178 
     43 H3          1.7626  -11.4459   -0.9432 H         1 LAP         0.1178 
     44 H4          1.2836   -8.9130   -1.5333 H         1 LAP         0.1159 
     45 H5          2.7589   -8.4625   -0.6129 H         1 LAP         0.1159 
     46 H6          3.5899   -7.2067   -2.5595 H         1 LAP         0.0527 
     47 H7          2.1145   -7.6572   -3.4799 H         1 LAP         0.0527 
     48 H8          0.7516   -6.5261   -1.8486 H         1 LAP         0.3662 
     49 H9          3.0691   -4.9122   -2.8478 H         1 LAP         0.0578 
     50 H10         1.5938   -5.3626   -3.7682 H         1 LAP         0.0578 
     51 H11        -0.7461   -3.8921   -3.0171 H         1 LAP         0.1706 
     52 H12        -0.8779   -1.6327   -1.4945 H         1 LAP         0.1602 
     53 H13         0.0818   -0.0111    0.0247 H         1 LAP         0.1525 
     54 H14         1.0455    1.5859    1.5318 H         1 LAP         0.1593 
     55 H15         3.6384   -2.1277    0.0107 H         1 LAP         0.1388 
     56 H16         5.1383    2.0359    3.5230 H         1 LAP         0.0574 
     57 H17         6.5389    0.3398    2.9162 H         1 LAP         0.4476 
     58 H18         6.5253   -4.1298    1.0679 H         1 LAP         0.1367 
     59 H19         6.5908   -5.4636   -1.0046 H         1 LAP         0.1467 
     60 H20         5.1052   -0.7289   -1.1525 H         1 LAP         0.1660 
     61 H21         7.9958   -4.4734   -3.4159 H         1 LAP         0.0455 
     62 H22         7.3308   -6.1369   -3.2854 H         1 LAP         0.0455 
     63 H23         6.4584   -7.2988   -5.2519 H         1 LAP         0.1428 
     64 H24         6.5467   -7.5209   -7.7129 H         1 LAP         0.1398 
     65 H25         7.3860   -5.6442   -9.1031 H         1 LAP         0.1494 
     66 H26         8.0519   -3.3081   -5.5646 H         1 LAP         0.1501 
@<TRIPOS>BOND
     1    1    2 1    
     2    1   41 1    
     3    1   42 1    
     4    1   43 1    
     5    2    3 2    
     6    2    4 2    
     7    2    5 1    
     8    5    6 1    
     9    5   44 1    
    10    5   45 1    
    11    6    7 1    
    12    6   46 1    
    13    6   47 1    
    14    7    8 1    
    15    7   48 1    
    16    8    9 1    
    17    8   49 1    
    18    8   50 1    
    19    9   13 1    
    20    9   10 2    
    21   10   11 1    
    22   10   51 1    
    23   11   12 2    
    24   11   52 1    
    25   12   13 1    
    26   12   14 1    
    27   14   19 ar   
    28   14   15 ar   
    29   15   53 1    
    30   15   16 ar   
    31   16   54 1    
    32   16   17 ar   
    33   17   18 ar   
    34   17   23 ar   
    35   18   20 ar   
    36   18   19 ar   
    37   19   55 1    
    38   20   24 2    
    39   20   21 ar   
    40   21   22 ar   
    41   21   57 1    
    42   22   23 ar   
    43   22   56 1    
    44   24   25 1    
    45   25   30 ar   
    46   25   26 ar   
    47   26   27 ar   
    48   26   58 1    
    49   27   28 ar   
    50   27   59 1    
    51   28   29 ar   
    52   28   32 1    
    53   29   30 ar   
    54   29   31 1    
    55   30   60 1    
    56   32   33 1    
    57   33   34 1    
    58   33   61 1    
    59   33   62 1    
    60   34   39 ar   
    61   34   35 ar   
    62   35   36 ar   
    63   35   63 1    
    64   36   37 ar   
    65   36   64 1    
    66   37   38 ar   
    67   37   65 1    
    68   38   39 ar   
    69   38   40 1    
    70   39   66 1    
@<TRIPOS>SUBSTRUCTURE
     1 LAP         1 GROUP             0       ****    0 ROOT    
@<TRIPOS>MOLECULE
~{N}-[3-chloro-4-[(3-fluorophenyl)methoxy]phenyl]-6-[5-[(2-methylsulfonylethylamino)methyl]-2-furyl]quinazolin-4-amine
66   70    1
SMALL
USER_CHARGES


@<TRIPOS>ATOM
      1 C1          2.8503  -11.3698   -1.0891 C.3       1 LAP        -0.3611 
      2 S1          3.2007  -10.0950   -2.2748 S.o2      1 LAP         1.3300 
      3 O1          2.5506  -10.4556   -3.5196 O.2       1 LAP        -0.6497 
      4 O2          4.6239   -9.8224   -2.2261 O.2       1 LAP        -0.6497 
      5 C2          2.3584   -8.6923   -1.6113 C.3       1 LAP        -0.3273 
      6 C3          2.5222   -7.4583   -2.4777 C.3       1 LAP         0.1953 
      7 N1          1.8259   -6.3035   -1.9269 N.3       1 LAP        -0.8224 
      8 C4          1.9983   -5.1506   -2.7675 C.3       1 LAP         0.1361 
      9 C5          1.3040   -3.9709   -2.2320 C.2       1 LAP         0.2446 
     10 C6          0.0348   -3.4687   -2.4016 C.2       1 LAP        -0.2329 
     11 C7         -0.0328   -2.2963   -1.6117 C.2       1 LAP        -0.2458 
     12 C8          1.1999   -2.1657   -1.0155 C.2       1 LAP         0.2973 
     13 O3          2.0206   -3.1825   -1.3885 O.3       1 LAP        -0.3614 
     14 C9          1.7783   -1.2043   -0.1094 C.ar      1 LAP        -0.1323 
     15 C10         1.0260   -0.1225    0.3346 C.ar      1 LAP        -0.0802 
     16 C11         1.5879    0.8085    1.2133 C.ar      1 LAP        -0.1796 
     17 C12         2.8996    0.6849    1.6651 C.ar      1 LAP         0.4386 
     18 C13         3.6493   -0.4117    1.2094 C.ar      1 LAP        -0.2903 
     19 C14         3.0914   -1.3522    0.3260 C.ar      1 LAP        -0.0772 
     20 C15         4.9553   -0.5014    1.6826 C.ar      1 LAP         0.7090 
     21 N2          5.5107    0.3871    2.5281 N.2       1 LAP        -0.7524 
     22 C16         4.7000    1.3924    2.8955 C.ar      1 LAP         0.6680 
     23 N3          3.4230    1.5905    2.5099 N.pl3     1 LAP        -0.7056 
     24 N4          5.7734   -1.5812    1.2667 N.2       1 LAP        -0.7607 
     25 C17         6.8294   -2.2643    1.8904 C.ar      1 LAP         0.1646 
     26 C18         7.8468   -2.8276    1.1202 C.ar      1 LAP        -0.1651 
     27 C19         8.8963   -3.5062    1.7397 C.ar      1 LAP        -0.1272 
     28 C20         8.9283   -3.6215    3.1295 C.ar      1 LAP         0.0785 
     29 C21         7.9109   -3.0582    3.8996 C.ar      1 LAP         0.0334 
     30 C22         6.8614   -2.3796    3.2801 C.ar      1 LAP        -0.1275 
     31 Cl1         7.9256   -3.1859    5.6200 Cl        1 LAP        -0.0662 
     32 O4          9.9665   -4.2887    3.7081 O.3       1 LAP        -0.3216 
     33 C23        10.1404   -5.6564    3.3442 C.3       1 LAP         0.1743 
     34 C24        10.7495   -6.3902    4.4999 C.ar      1 LAP        -0.0678 
     35 C25        12.1366   -6.4806    4.6156 C.ar      1 LAP        -0.1179 
     36 C26        12.7036   -7.1650    5.6907 C.ar      1 LAP        -0.1096 
     37 C27        11.8835   -7.7590    6.6501 C.ar      1 LAP        -0.1556 
     38 C28        10.4963   -7.6686    6.5342 C.ar      1 LAP         0.1205 
     39 C29         9.9293   -6.9842    5.4590 C.ar      1 LAP        -0.1431 
     40 F1          9.7082   -8.2388    7.4551 F         1 LAP        -0.1415 
     41 H1          3.3323  -11.1227   -0.1318 H         1 LAP         0.1178 
     42 H2          3.2388  -12.3305   -1.4580 H         1 LAP         0.1178 
     43 H3          1.7626  -11.4459   -0.9432 H         1 LAP         0.1178 
     44 H4          1.2836   -8.9130   -1.5333 H         1 LAP         0.1159 
     45 H5          2.7589   -8.4625   -0.6129 H         1 LAP         0.1159 
     46 H6          3.5899   -7.2067   -2.5595 H         1 LAP         0.0527 
     47 H7          2.1145   -7.6572   -3.4799 H         1 LAP         0.0527 
     48 H8          0.7516   -6.5261   -1.8486 H         1 LAP         0.3662 
     49 H9          3.0691   -4.9122   -2.8478 H         1 LAP         0.0578 
     50 H10         1.5938   -5.3626   -3.7682 H         1 LAP         0.0578 
     51 H11        -0.7461   -3.8921   -3.0171 H         1 LAP         0.1706 
     52 H12        -0.8779   -1.6327   -1.4945 H         1 LAP         0.1602 
     53 H13         0.0818   -0.0111    0.0247 H         1 LAP         0.1525 
     54 H14         1.0455    1.5859    1.5318 H         1 LAP         0.1593 
     55 H15         3.6384   -2.1277    0.0107 H         1 LAP         0.1388 
     56 H16         5.0308    2.0980    3.5222 H         1 LAP         0.0574 
     57 H17         2.8140    2.4403    2.8518 H         1 LAP         0.4476 
     58 H18         7.8322   -2.7424    0.0367 H         1 LAP         0.1367 
     59 H19         9.6861   -3.9420    1.1335 H         1 LAP         0.1467 
     60 H20         6.0661   -1.9378    3.8768 H         1 LAP         0.1660 
     61 H21         9.1634   -6.0968    3.0963 H         1 LAP         0.0455 
     62 H22        10.8045   -5.7216    2.4697 H         1 LAP         0.0455 
     63 H23        12.7839   -6.0208    3.8735 H         1 LAP         0.1428 
     64 H24        13.7837   -7.2349    5.7813 H         1 LAP         0.1398 
     65 H25        12.3238   -8.2925    7.4870 H         1 LAP         0.1494 
     66 H26         8.8476   -6.9193    5.3771 H         1 LAP         0.1501 
@<TRIPOS>BOND
     1    1    2 1    
     2    1   41 1    
     3    1   42 1    
     4    1   43 1    
     5    2    3 2    
     6    2    4 2    
     7    2    5 1    
     8    5    6 1    
     9    5   44 1    
    10    5   45 1    
    11    6    7 1    
    12    6   46 1    
    13    6   47 1    
    14    7    8 1    
    15    7   48 1    
    16    8    9 1    
    17    8   49 1    
    18    8   50 1    
    19    9   13 1    
    20    9   10 2    
    21   10   11 1    
    22   10   51 1    
    23   11   12 2    
    24   11   52 1    
    25   12   13 1    
    26   12   14 1    
    27   14   19 ar   
    28   14   15 ar   
    29   15   53 1    
    30   15   16 ar   
    31   16   54 1    
    32   16   17 ar   
    33   17   18 ar   
    34   17   23 ar   
    35   18   20 ar   
    36   18   19 ar   
    37   19   55 1    
    38   20   24 2    
    39   20   21 ar   
    40   21   22 ar   
    41   22   23 ar   
    42   22   56 1    
    43   23   57 1    
    44   24   25 1    
    45   25   30 ar   
    46   25   26 ar   
    47   26   27 ar   
    48   26   58 1    
    49   27   28 ar   
    50   27   59 1    
    51   28   29 ar   
    52   28   32 1    
    53   29   30 ar   
    54   29   31 1    
    55   30   60 1    
    56   32   33 1    
    57   33   34 1    
    58   33   61 1    
    59   33   62 1    
    60   34   39 ar   
    61   34   35 ar   
    62   35   36 ar   
    63   35   63 1    
    64   36   37 ar   
    65   36   64 1    
    66   37   38 ar   
    67   37   65 1    
    68   38   39 ar   
    69   38   40 1    
    70   39   66 1    
@<TRIPOS>SUBSTRUCTURE
     1 LAP         1 GROUP             0       ****    0 ROOT    
@<TRIPOS>MOLECULE
~{N}-[3-chloro-4-[(3-fluorophenyl)methoxy]phenyl]-6-[5-[(2-methylsulfonylethylamino)methyl]-2-furyl]quinazolin-4-amine
66   70    1
SMALL
USER_CHARGES


@<TRIPOS>ATOM
      1 C1          2.8503  -11.3698   -1.0891 C.3       1 LAP        -0.3611 
      2 S1          3.2007  -10.0950   -2.2748 S.o2      1 LAP         1.3300 
      3 O1          2.5506  -10.4556   -3.5196 O.2       1 LAP        -0.6497 
      4 O2          4.6239   -9.8224   -2.2261 O.2       1 LAP        -0.6497 
      5 C2          2.3584   -8.6923   -1.6113 C.3       1 LAP        -0.3273 
      6 C3          2.5222   -7.4583   -2.4777 C.3       1 LAP         0.1953 
      7 N1          1.8259   -6.3035   -1.9269 N.3       1 LAP        -0.8224 
      8 C4          1.9983   -5.1506   -2.7675 C.3       1 LAP         0.1361 
      9 C5          1.3040   -3.9709   -2.2320 C.2       1 LAP         0.2446 
     10 C6          0.0348   -3.4687   -2.4016 C.2       1 LAP        -0.2329 
     11 C7         -0.0328   -2.2963   -1.6117 C.2       1 LAP        -0.2458 
     12 C8          1.1999   -2.1657   -1.0155 C.2       1 LAP         0.2973 
     13 O3          2.0206   -3.1825   -1.3885 O.3       1 LAP        -0.3614 
     14 C9          1.7783   -1.2043   -0.1094 C.ar      1 LAP        -0.1323 
     15 C10         1.0260   -0.1225    0.3346 C.ar      1 LAP        -0.0802 
     16 C11         1.5879    0.8085    1.2133 C.ar      1 LAP        -0.1796 
     17 C12         2.8996    0.6849    1.6651 C.ar      1 LAP         0.4386 
     18 C13         3.6493   -0.4117    1.2094 C.ar      1 LAP        -0.2903 
     19 C14         3.0914   -1.3522    0.3260 C.ar      1 LAP        -0.0772 
     20 C15         4.9553   -0.5014    1.6826 C.ar      1 LAP         0.7090 
     21 N2          5.5107    0.3871    2.5281 N.2       1 LAP        -0.7524 
     22 C16         4.7000    1.3924    2.8955 C.ar      1 LAP         0.6680 
     23 N3          3.4230    1.5905    2.5099 N.pl3     1 LAP        -0.7056 
     24 N4          5.7734   -1.5812    1.2667 N.2       1 LAP        -0.7607 
     25 C17         5.8110   -2.3415    0.0872 C.ar      1 LAP         0.1646 
     26 C18         6.2282   -3.6718    0.1280 C.ar      1 LAP        -0.1651 
     27 C19         6.2653   -4.4275   -1.0438 C.ar      1 LAP        -0.1272 
     28 C20         5.8852   -3.8527   -2.2566 C.ar      1 LAP         0.0785 
     29 C21         5.4679   -2.5224   -2.2975 C.ar      1 LAP         0.0334 
     30 C22         5.4309   -1.7667   -1.1256 C.ar      1 LAP        -0.1275 
     31 Cl1         4.9925   -1.7865   -3.7837 Cl        1 LAP        -0.0662 
     32 O4          5.9300   -4.6149   -3.3858 O.3       1 LAP        -0.3216 
     33 C23         7.1986   -5.1510   -3.7551 C.3       1 LAP         0.1743 
     34 C24         7.2495   -5.2884   -5.2463 C.ar      1 LAP        -0.0678 
     35 C25         6.8273   -6.4716   -5.8525 C.ar      1 LAP        -0.1179 
     36 C26         6.8761   -6.5999   -7.2406 C.ar      1 LAP        -0.1096 
     37 C27         7.3470   -5.5451   -8.0225 C.ar      1 LAP        -0.1556 
     38 C28         7.7694   -4.3620   -7.4161 C.ar      1 LAP         0.1205 
     39 C29         7.7206   -4.2336   -6.0280 C.ar      1 LAP        -0.1431 
     40 F1          8.2218   -3.3487   -8.1664 F         1 LAP        -0.1415 
     41 H1          3.3323  -11.1227   -0.1318 H         1 LAP         0.1178 
     42 H2          3.2388  -12.3305   -1.4580 H         1 LAP         0.1178 
     43 H3          1.7626  -11.4459   -0.9432 H         1 LAP         0.1178 
     44 H4          1.2836   -8.9130   -1.5333 H         1 LAP         0.1159 
     45 H5          2.7589   -8.4625   -0.6129 H         1 LAP         0.1159 
     46 H6          3.5899   -7.2067   -2.5595 H         1 LAP         0.0527 
     47 H7          2.1145   -7.6572   -3.4799 H         1 LAP         0.0527 
     48 H8          0.7516   -6.5261   -1.8486 H         1 LAP         0.3662 
     49 H9          3.0691   -4.9122   -2.8478 H         1 LAP         0.0578 
     50 H10         1.5938   -5.3626   -3.7682 H         1 LAP         0.0578 
     51 H11        -0.7461   -3.8921   -3.0171 H         1 LAP         0.1706 
     52 H12        -0.8779   -1.6327   -1.4945 H         1 LAP         0.1602 
     53 H13         0.0818   -0.0111    0.0247 H         1 LAP         0.1525 
     54 H14         1.0455    1.5859    1.5318 H         1 LAP         0.1593 
     55 H15         3.6384   -2.1277    0.0107 H         1 LAP         0.1388 
     56 H16         5.0308    2.0980    3.5222 H         1 LAP         0.0574 
     57 H17         2.8140    2.4403    2.8518 H         1 LAP         0.4476 
     58 H18         6.5253   -4.1298    1.0679 H         1 LAP         0.1367 
     59 H19         6.5908   -5.4636   -1.0046 H         1 LAP         0.1467 
     60 H20         5.1052   -0.7289   -1.1525 H         1 LAP         0.1660 
     61 H21         7.9958   -4.4734   -3.4159 H         1 LAP         0.0455 
     62 H22         7.3308   -6.1369   -3.2854 H         1 LAP         0.0455 
     63 H23         6.4584   -7.2988   -5.2519 H         1 LAP         0.1428 
     64 H24         6.5467   -7.5209   -7.7129 H         1 LAP         0.1398 
     65 H25         7.3860   -5.6442   -9.1031 H         1 LAP         0.1494 
     66 H26         8.0519   -3.3081   -5.5646 H         1 LAP         0.1501 
@<TRIPOS>BOND
     1    1    2 1    
     2    1   41 1    
     3    1   42 1    
     4    1   43 1    
     5    2    3 2    
     6    2    4 2    
     7    2    5 1    
     8    5    6 1    
     9    5   44 1    
    10    5   45 1    
    11    6    7 1    
    12    6   46 1    
    13    6   47 1    
    14    7    8 1    
    15    7   48 1    
    16    8    9 1    
    17    8   49 1    
    18    8   50 1    
    19    9   13 1    
    20    9   10 2    
    21   10   11 1    
    22   10   51 1    
    23   11   12 2    
    24   11   52 1    
    25   12   13 1    
    26   12   14 1    
    27   14   19 ar   
    28   14   15 ar   
    29   15   53 1    
    30   15   16 ar   
    31   16   54 1    
    32   16   17 ar   
    33   17   18 ar   
    34   17   23 ar   
    35   18   20 ar   
    36   18   19 ar   
    37   19   55 1    
    38   20   24 2    
    39   20   21 ar   
    40   21   22 ar   
    41   22   23 ar   
    42   22   56 1    
    43   23   57 1    
    44   24   25 1    
    45   25   30 ar   
    46   25   26 ar   
    47   26   27 ar   
    48   26   58 1    
    49   27   28 ar   
    50   27   59 1    
    51   28   29 ar   
    52   28   32 1    
    53   29   30 ar   
    54   29   31 1    
    55   30   60 1    
    56   32   33 1    
    57   33   34 1    
    58   33   61 1    
    59   33   62 1    
    60   34   39 ar   
    61   34   35 ar   
    62   35   36 ar   
    63   35   63 1    
    64   36   37 ar   
    65   36   64 1    
    66   37   38 ar   
    67   37   65 1    
    68   38   39 ar   
    69   38   40 1    
    70   39   66 1    
@<TRIPOS>SUBSTRUCTURE
     1 LAP         1 GROUP             0       ****    0 ROOT    
@<TRIPOS>MOLECULE
~{N}-[3-chloro-4-[(3-fluorophenyl)methoxy]phenyl]-6-[5-[(2-methylsulfonylethylamino)methyl]-2-furyl]quinazolin-4-amine
68   72    1
SMALL
USER_CHARGES


@<TRIPOS>ATOM
      1 C1          2.8506  -11.3702   -1.0877 C.3       1 LAP        -0.3611 
      2 S1          3.2008  -10.0955   -2.2736 S.o2      1 LAP         1.3300 
      3 O1          2.5505  -10.4562   -3.5182 O.2       1 LAP        -0.6497 
      4 O2          4.6239   -9.8228   -2.2251 O.2       1 LAP        -0.6497 
      5 C2          2.3585   -8.6927   -1.6101 C.3       1 LAP        -0.3273 
      6 C3          2.5220   -7.4588   -2.4767 C.3       1 LAP         0.1953 
      7 N1          1.8258   -6.3040   -1.9259 N.4       1 LAP        -0.8224 
      8 C4          1.9979   -5.1512   -2.7666 C.3       1 LAP         0.1361 
      9 C5          1.3037   -3.9715   -2.2312 C.2       1 LAP         0.2446 
     10 C6          0.0344   -3.4694   -2.4006 C.2       1 LAP        -0.2329 
     11 C7         -0.0332   -2.2969   -1.6108 C.2       1 LAP        -0.2458 
     12 C8          1.1996   -2.1662   -1.0148 C.2       1 LAP         0.2973 
     13 O3          2.0203   -3.1829   -1.3879 O.3       1 LAP        -0.3614 
     14 C9          1.7781   -1.2046   -0.1090 C.ar      1 LAP        -0.1323 
     15 C10         1.0259   -0.1228    0.3350 C.ar      1 LAP        -0.0802 
     16 C11         1.5879    0.8085    1.2132 C.ar      1 LAP        -0.1796 
     17 C12         2.8996    0.6850    1.6650 C.ar      1 LAP         0.4386 
     18 C13         3.6493   -0.4117    1.2094 C.ar      1 LAP        -0.2903 
     19 C14         3.0913   -1.3524    0.3263 C.ar      1 LAP        -0.0772 
     20 C15         4.9553   -0.5013    1.6825 C.ar      1 LAP         0.7090 
     21 N2          5.5107    0.3871    2.5281 N.ar      1 LAP        -0.7524 
     22 C16         4.7000    1.3925    2.8954 C.ar      1 LAP         0.6680 
     23 N3          3.4231    1.5906    2.5098 N.ar      1 LAP        -0.7056 
     24 N4          5.7734   -1.5812    1.2667 N.pl3     1 LAP        -0.7607 
     25 C17         6.8294   -2.2643    1.8904 C.ar      1 LAP         0.1646 
     26 C18         7.8468   -2.8277    1.1203 C.ar      1 LAP        -0.1651 
     27 C19         8.8963   -3.5062    1.7398 C.ar      1 LAP        -0.1272 
     28 C20         8.9283   -3.6214    3.1296 C.ar      1 LAP         0.0785 
     29 C21         7.9109   -3.0580    3.8997 C.ar      1 LAP         0.0334 
     30 C22         6.8614   -2.3795    3.2801 C.ar      1 LAP        -0.1275 
     31 Cl1         7.9256   -3.1856    5.6201 Cl        1 LAP        -0.0662 
     32 O4          9.9665   -4.2886    3.7083 O.3       1 LAP        -0.3216 
     33 C23        10.1403   -5.6563    3.3445 C.3       1 LAP         0.1743 
     34 C24        10.7494   -6.3901    4.5002 C.ar      1 LAP        -0.0678 
     35 C25        12.1365   -6.4805    4.6159 C.ar      1 LAP        -0.1179 
     36 C26        12.7035   -7.1648    5.6911 C.ar      1 LAP        -0.1096 
     37 C27        11.8834   -7.7587    6.6505 C.ar      1 LAP        -0.1556 
     38 C28        10.4962   -7.6683    6.5346 C.ar      1 LAP         0.1205 
     39 C29         9.9292   -6.9840    5.4594 C.ar      1 LAP        -0.1431 
     40 F1          9.7081   -8.2384    7.4556 F         1 LAP        -0.1415 
     41 H1          3.3327  -11.1229   -0.1304 H         1 LAP         0.1178 
     42 H2          3.2392  -12.3309   -1.4565 H         1 LAP         0.1178 
     43 H3          1.7630  -11.4463   -0.9416 H         1 LAP         0.1178 
     44 H4          1.2837   -8.9135   -1.5319 H         1 LAP         0.1159 
     45 H5          2.7591   -8.4628   -0.6118 H         1 LAP         0.1159 
     46 H6          3.5897   -7.2072   -2.5587 H         1 LAP         0.0527 
     47 H7          2.1142   -7.6578   -3.4788 H         1 LAP         0.0527 
     48 H8          0.7514   -6.5267   -1.8474 H         1 LAP         0.3662 
     49 H9          3.0687   -4.9127   -2.8471 H         1 LAP         0.0578 
     50 H10         1.5933   -5.3634   -3.7672 H         1 LAP         0.0578 
     51 H11        -0.7466   -3.8929   -3.0159 H         1 LAP         0.1706 
     52 H12        -0.8783   -1.6333   -1.4936 H         1 LAP         0.1602 
     53 H13        -0.0025    0.0142    0.0088 H         1 LAP         0.1525 
     54 H14         0.9780    1.6463    1.5460 H         1 LAP         0.1593 
     55 H15         3.6726   -2.2021   -0.0265 H         1 LAP         0.1388 
     56 H16         5.1159    2.1256    3.5759 H         1 LAP         0.0574 
     57 H17         5.1445   -2.4606    1.0636 H         1 LAP         0.4476 
     58 H18         7.8322   -2.7426    0.0368 H         1 LAP         0.1367 
     59 H19         9.6860   -3.9421    1.1337 H         1 LAP         0.1467 
     60 H20         6.0661   -1.9376    3.8768 H         1 LAP         0.1660 
     61 H21         9.1633   -6.0968    3.0967 H         1 LAP         0.0455 
     62 H22        10.8044   -5.7216    2.4700 H         1 LAP         0.0455 
     63 H23        12.7838   -6.0208    3.8738 H         1 LAP         0.1428 
     64 H24        13.7836   -7.2347    5.7817 H         1 LAP         0.1398 
     65 H25        12.3237   -8.2922    7.4875 H         1 LAP         0.1494 
     66 H26         8.8475   -6.9190    5.3775 H         1 LAP         0.1501 
     67 H67         2.2269   -6.0760   -0.9273 H         1 LAP         0.0000 
     68 H68         6.3159   -1.2993    0.3522 H         1 LAP         0.0000 
@<TRIPOS>BOND
     1    1    2 1    
     2    1   41 1    
     3    1   42 1    
     4    1   43 1    
     5    2    3 2    
     6    2    4 2    
     7    2    5 1    
     8    5    6 1    
     9    5   44 1    
    10    5   45 1    
    11    6    7 1    
    12    6   46 1    
    13    6   47 1    
    14    7    8 1    
    15    7   48 1    
    16    7   67 1    
    17    8    9 1    
    18    8   49 1    
    19    8   50 1    
    20    9   13 1    
    21    9   10 2    
    22   10   11 1    
    23   10   51 1    
    24   11   12 2    
    25   11   52 1    
    26   12   13 1    
    27   12   14 1    
    28   14   19 ar   
    29   14   15 ar   
    30   15   16 ar   
    31   15   53 1    
    32   16   17 ar   
    33   16   54 1    
    34   17   23 ar   
    35   17   18 ar   
    36   18   19 ar   
    37   18   20 ar   
    38   19   55 1    
    39   20   21 ar   
    40   20   24 1    
    41   21   22 ar   
    42   22   23 ar   
    43   22   56 1    
    44   24   25 1    
    45   24   57 1    
    46   24   68 1    
    47   25   30 ar   
    48   25   26 ar   
    49   26   27 ar   
    50   26   58 1    
    51   27   28 ar   
    52   27   59 1    
    53   28   29 ar   
    54   28   32 1    
    55   29   30 ar   
    56   29   31 1    
    57   30   60 1    
    58   32   33 1    
    59   33   34 1    
    60   33   61 1    
    61   33   62 1    
    62   34   39 ar   
    63   34   35 ar   
    64   35   36 ar   
    65   35   63 1    
    66   36   37 ar   
    67   36   64 1    
    68   37   38 ar   
    69   37   65 1    
    70   38   39 ar   
    71   38   40 1    
    72   39   66 1    
@<TRIPOS>SUBSTRUCTURE
     1 LAP         1 GROUP             0       ****    0 ROOT    
