@<TRIPOS>MOLECULE
[5-[4-[3-chloro-4-[(3-fluorophenyl)methoxy]anilino]quinazolin-6-yl]-2-furyl]methyl-(2-methylsulfonylethyl)ammonium
   67    71     0     0     0
SMALL
USER_CHARGES

@<TRIPOS>ATOM
      1 C1          2.8506  -11.3702   -1.0877 C.3       1 <0>        -0.4030
      2 S1          3.2008  -10.0955   -2.2736 S.o2      1 <0>         1.3536
      3 O1          2.5505  -10.4562   -3.5182 O.2       1 <0>        -0.6180
      4 O2          4.6239   -9.8228   -2.2251 O.2       1 <0>        -0.6180
      5 C2          2.3585   -8.6927   -1.6101 C.3       1 <0>        -0.3382
      6 C3          2.5220   -7.4588   -2.4767 C.3       1 <0>         0.1394
      7 N1          1.8258   -6.3040   -1.9259 N.4       1 <0>        -0.7646
      8 C4          1.9979   -5.1512   -2.7666 C.3       1 <0>         0.1107
      9 C5          1.3037   -3.9715   -2.2312 C.2       1 <0>         0.0816
     10 C6          0.0344   -3.4694   -2.4006 C.2       1 <0>        -0.1596
     11 C7         -0.0332   -2.2969   -1.6108 C.2       1 <0>        -0.2756
     12 C8          1.1996   -2.1662   -1.0148 C.2       1 <0>         0.4043
     13 O3          2.0203   -3.1829   -1.3879 O.3       1 <0>        -0.3442
     14 C9          1.7781   -1.2046   -0.1090 C.ar      1 <0>        -0.1994
     15 C10         1.0259   -0.1228    0.3350 C.ar      1 <0>        -0.0794
     16 C11         1.5879    0.8085    1.2132 C.ar      1 <0>        -0.1727
     17 C12         2.8996    0.6850    1.6650 C.ar      1 <0>         0.4574
     18 C13         3.6493   -0.4117    1.2094 C.ar      1 <0>        -0.2965
     19 C14         3.0913   -1.3524    0.3263 C.ar      1 <0>        -0.0261
     20 C15         4.9553   -0.5013    1.6825 C.ar      1 <0>         0.6941
     21 N2          5.5107    0.3871    2.5281 N.ar      1 <0>        -0.7354
     22 C16         4.7000    1.3925    2.8954 C.ar      1 <0>         0.6885
     23 N3          3.4231    1.5906    2.5098 N.ar      1 <0>        -0.7007
     24 N4          5.7734   -1.5812    1.2667 N.pl3     1 <0>        -0.7285
     25 C17         6.8294   -2.2643    1.8904 C.ar      1 <0>         0.1247
     26 C18         7.8468   -2.8277    1.1203 C.ar      1 <0>        -0.1125
     27 C19         8.8963   -3.5062    1.7398 C.ar      1 <0>        -0.1350
     28 C20         8.9283   -3.6214    3.1296 C.ar      1 <0>         0.0979
     29 C21         7.9109   -3.0580    3.8997 C.ar      1 <0>         0.0280
     30 C22         6.8614   -2.3795    3.2801 C.ar      1 <0>        -0.1602
     31 Cl1         7.9256   -3.1856    5.6201 Cl        1 <0>        -0.0600
     32 O4          9.9665   -4.2886    3.7083 O.3       1 <0>        -0.3174
     33 C23        10.1403   -5.6563    3.3445 C.3       1 <0>         0.1764
     34 C24        10.7494   -6.3901    4.5002 C.ar      1 <0>        -0.0751
     35 C25        12.1365   -6.4805    4.6159 C.ar      1 <0>        -0.1183
     36 C26        12.7035   -7.1648    5.6911 C.ar      1 <0>        -0.1075
     37 C27        11.8834   -7.7587    6.6505 C.ar      1 <0>        -0.1509
     38 C28        10.4962   -7.6683    6.5346 C.ar      1 <0>         0.1247
     39 C29         9.9292   -6.9840    5.4594 C.ar      1 <0>        -0.1426
     40 F1          9.7081   -8.2384    7.4556 F         1 <0>        -0.1367
     41 H1          3.3327  -11.1229   -0.1304 H         1 <0>         0.1364
     42 H2          3.2392  -12.3309   -1.4565 H         1 <0>         0.1364
     43 H3          1.7630  -11.4463   -0.9416 H         1 <0>         0.1364
     44 H4          1.2837   -8.9135   -1.5319 H         1 <0>         0.1260
     45 H5          2.7591   -8.4628   -0.6118 H         1 <0>         0.1260
     46 H6          3.5897   -7.2072   -2.5587 H         1 <0>         0.1171
     47 H7          2.1142   -7.6578   -3.4788 H         1 <0>         0.1171
     48 H8          0.7514   -6.5267   -1.8474 H         1 <0>         0.4529
     49 H9          3.0687   -4.9127   -2.8471 H         1 <0>         0.1223
     50 H10         1.5933   -5.3634   -3.7672 H         1 <0>         0.1223
     51 H11        -0.7466   -3.8929   -3.0159 H         1 <0>         0.1701
     52 H12        -0.8783   -1.6333   -1.4936 H         1 <0>         0.1897
     53 H13        -0.0025    0.0142    0.0088 H         1 <0>         0.1432
     54 H14         0.9780    1.6463    1.5460 H         1 <0>         0.1697
     55 H15         3.6726   -2.2021   -0.0265 H         1 <0>         0.1482
     56 H16         5.1159    2.1256    3.5759 H         1 <0>         0.0723
     57 H17         5.6227   -2.0358    0.2764 H         1 <0>         0.4300
     58 H18         7.8322   -2.7426    0.0368 H         1 <0>         0.1520
     59 H19         9.6860   -3.9421    1.1337 H         1 <0>         0.1535
     60 H20         6.0661   -1.9376    3.8768 H         1 <0>         0.1448
     61 H21         9.1633   -6.0968    3.0967 H         1 <0>         0.0448
     62 H22        10.8044   -5.7216    2.4700 H         1 <0>         0.0448
     63 H23        12.7838   -6.0208    3.8738 H         1 <0>         0.1403
     64 H24        13.7836   -7.2347    5.7817 H         1 <0>         0.1421
     65 H25        12.3237   -8.2922    7.4875 H         1 <0>         0.1533
     66 H26         8.8475   -6.9190    5.3775 H         1 <0>         0.1502
     67 H27         2.2269   -6.0760   -0.9273 H         1 <0>         0.4529
@<TRIPOS>BOND
     1    1    2 1
     2    1   41 1
     3    1   42 1
     4    1   43 1
     5    2    3 2
     6    2    4 2
     7    2    5 1
     8    5    6 1
     9    5   44 1
    10    5   45 1
    11    6    7 1
    12    6   46 1
    13    6   47 1
    14    7    8 1
    15    7   48 1
    16    7   67 1
    17    8    9 1
    18    8   49 1
    19    8   50 1
    20    9   13 1
    21    9   10 2
    22   10   11 1
    23   10   51 1
    24   11   12 2
    25   11   52 1
    26   12   13 1
    27   12   14 1
    28   14   19 ar
    29   14   15 ar
    30   15   16 ar
    31   15   53 1
    32   16   17 ar
    33   16   54 1
    34   17   23 ar
    35   17   18 ar
    36   18   19 ar
    37   18   20 ar
    38   19   55 1
    39   20   21 ar
    40   20   24 1
    41   21   22 ar
    42   22   23 ar
    43   22   56 1
    44   24   25 1
    45   24   57 1
    46   25   30 ar
    47   25   26 ar
    48   26   27 ar
    49   26   58 1
    50   27   28 ar
    51   27   59 1
    52   28   29 ar
    53   28   32 1
    54   29   30 ar
    55   29   31 1
    56   30   60 1
    57   32   33 1
    58   33   34 1
    59   33   61 1
    60   33   62 1
    61   34   39 ar
    62   34   35 ar
    63   35   36 ar
    64   35   63 1
    65   36   37 ar
    66   36   64 1
    67   37   38 ar
    68   37   65 1
    69   38   39 ar
    70   38   40 1
    71   39   66 1
@<TRIPOS>MOLECULE
~{N}-[3-chloro-4-[(3-fluorophenyl)methoxy]phenyl]-6-[5-[(2-methylsulfonylethylamino)methyl]-2-furyl]quinazolin-4-amine
   66    70     0     0     0
SMALL
USER_CHARGES

@<TRIPOS>ATOM
      1 C1          2.8506  -11.3702   -1.0877 C.3       1 <0>        -0.3674
      2 S1          3.2008  -10.0955   -2.2736 S.o2      1 <0>         1.3405
      3 O1          2.5505  -10.4562   -3.5182 O.2       1 <0>        -0.6513
      4 O2          4.6239   -9.8228   -2.2251 O.2       1 <0>        -0.6513
      5 C2          2.3585   -8.6927   -1.6101 C.3       1 <0>        -0.3317
      6 C3          2.5220   -7.4588   -2.4767 C.3       1 <0>         0.1948
      7 N1          1.8258   -6.3040   -1.9259 N.3       1 <0>        -0.8206
      8 C4          1.9979   -5.1512   -2.7666 C.3       1 <0>         0.1352
      9 C5          1.3037   -3.9715   -2.2312 C.2       1 <0>         0.2444
     10 C6          0.0344   -3.4694   -2.4006 C.2       1 <0>        -0.2345
     11 C7         -0.0332   -2.2969   -1.6108 C.2       1 <0>        -0.2460
     12 C8          1.1996   -2.1662   -1.0148 C.2       1 <0>         0.2982
     13 O3          2.0203   -3.1829   -1.3879 O.3       1 <0>        -0.3619
     14 C9          1.7781   -1.2046   -0.1090 C.ar      1 <0>        -0.1315
     15 C10         1.0259   -0.1228    0.3350 C.ar      1 <0>        -0.0810
     16 C11         1.5879    0.8085    1.2132 C.ar      1 <0>        -0.1795
     17 C12         2.8996    0.6850    1.6650 C.ar      1 <0>         0.4396
     18 C13         3.6493   -0.4117    1.2094 C.ar      1 <0>        -0.2902
     19 C14         3.0913   -1.3524    0.3263 C.ar      1 <0>        -0.0760
     20 C15         4.9553   -0.5013    1.6825 C.ar      1 <0>         0.7070
     21 N2          5.5107    0.3871    2.5281 N.ar      1 <0>        -0.7532
     22 C16         4.7000    1.3925    2.8954 C.ar      1 <0>         0.6685
     23 N3          3.4231    1.5906    2.5098 N.ar      1 <0>        -0.7061
     24 N4          5.7734   -1.5812    1.2667 N.pl3     1 <0>        -0.7577
     25 C17         6.8294   -2.2643    1.8904 C.ar      1 <0>         0.1641
     26 C18         7.8468   -2.8277    1.1203 C.ar      1 <0>        -0.1651
     27 C19         8.8963   -3.5062    1.7398 C.ar      1 <0>        -0.1269
     28 C20         8.9283   -3.6214    3.1296 C.ar      1 <0>         0.0774
     29 C21         7.9109   -3.0580    3.8997 C.ar      1 <0>         0.0329
     30 C22         6.8614   -2.3795    3.2801 C.ar      1 <0>        -0.1270
     31 Cl1         7.9256   -3.1856    5.6201 Cl        1 <0>        -0.0651
     32 O4          9.9665   -4.2886    3.7083 O.3       1 <0>        -0.3216
     33 C23        10.1403   -5.6563    3.3445 C.3       1 <0>         0.1740
     34 C24        10.7494   -6.3901    4.5002 C.ar      1 <0>        -0.0679
     35 C25        12.1365   -6.4805    4.6159 C.ar      1 <0>        -0.1179
     36 C26        12.7035   -7.1648    5.6911 C.ar      1 <0>        -0.1094
     37 C27        11.8834   -7.7587    6.6505 C.ar      1 <0>        -0.1553
     38 C28        10.4962   -7.6683    6.5346 C.ar      1 <0>         0.1204
     39 C29         9.9292   -6.9840    5.4594 C.ar      1 <0>        -0.1428
     40 F1          9.7081   -8.2384    7.4556 F         1 <0>        -0.1415
     41 H1          3.3327  -11.1229   -0.1304 H         1 <0>         0.1185
     42 H2          3.2392  -12.3309   -1.4565 H         1 <0>         0.1185
     43 H3          1.7630  -11.4463   -0.9416 H         1 <0>         0.1185
     44 H4          1.2837   -8.9135   -1.5319 H         1 <0>         0.1161
     45 H5          2.7591   -8.4628   -0.6118 H         1 <0>         0.1161
     46 H6          3.5897   -7.2072   -2.5587 H         1 <0>         0.0535
     47 H7          2.1142   -7.6578   -3.4788 H         1 <0>         0.0535
     48 H8          0.7514   -6.5267   -1.8474 H         1 <0>         0.3656
     49 H9          3.0687   -4.9127   -2.8471 H         1 <0>         0.0583
     50 H10         1.5933   -5.3634   -3.7672 H         1 <0>         0.0583
     51 H11        -0.7466   -3.8929   -3.0159 H         1 <0>         0.1707
     52 H12        -0.8783   -1.6333   -1.4936 H         1 <0>         0.1603
     53 H13        -0.0025    0.0142    0.0088 H         1 <0>         0.1522
     54 H14         0.9780    1.6463    1.5460 H         1 <0>         0.1596
     55 H15         3.6726   -2.2021   -0.0265 H         1 <0>         0.1393
     56 H16         5.1159    2.1256    3.5759 H         1 <0>         0.0573
     57 H17         5.6227   -2.0358    0.2764 H         1 <0>         0.4452
     58 H18         7.8322   -2.7426    0.0368 H         1 <0>         0.1369
     59 H19         9.6860   -3.9421    1.1337 H         1 <0>         0.1469
     60 H20         6.0661   -1.9376    3.8768 H         1 <0>         0.1658
     61 H21         9.1633   -6.0968    3.0967 H         1 <0>         0.0455
     62 H22        10.8044   -5.7216    2.4700 H         1 <0>         0.0455
     63 H23        12.7838   -6.0208    3.8738 H         1 <0>         0.1425
     64 H24        13.7836   -7.2347    5.7817 H         1 <0>         0.1398
     65 H25        12.3237   -8.2922    7.4875 H         1 <0>         0.1492
     66 H26         8.8475   -6.9190    5.3775 H         1 <0>         0.1502
@<TRIPOS>BOND
     1    1    2 1
     2    1   41 1
     3    1   42 1
     4    1   43 1
     5    2    3 2
     6    2    4 2
     7    2    5 1
     8    5    6 1
     9    5   44 1
    10    5   45 1
    11    6    7 1
    12    6   46 1
    13    6   47 1
    14    7    8 1
    15    7   48 1
    16    8    9 1
    17    8   49 1
    18    8   50 1
    19    9   13 1
    20    9   10 2
    21   10   11 1
    22   10   51 1
    23   11   12 2
    24   11   52 1
    25   12   13 1
    26   12   14 1
    27   14   19 ar
    28   14   15 ar
    29   15   16 ar
    30   15   53 1
    31   16   17 ar
    32   16   54 1
    33   17   23 ar
    34   17   18 ar
    35   18   19 ar
    36   18   20 ar
    37   19   55 1
    38   20   21 ar
    39   20   24 1
    40   21   22 ar
    41   22   23 ar
    42   22   56 1
    43   24   25 1
    44   24   57 1
    45   25   30 ar
    46   25   26 ar
    47   26   27 ar
    48   26   58 1
    49   27   28 ar
    50   27   59 1
    51   28   29 ar
    52   28   32 1
    53   29   30 ar
    54   29   31 1
    55   30   60 1
    56   32   33 1
    57   33   34 1
    58   33   61 1
    59   33   62 1
    60   34   39 ar
    61   34   35 ar
    62   35   36 ar
    63   35   63 1
    64   36   37 ar
    65   36   64 1
    66   37   38 ar
    67   37   65 1
    68   38   39 ar
    69   38   40 1
    70   39   66 1
@<TRIPOS>MOLECULE
[5-[4-[3-chloro-4-[(3-fluorophenyl)methoxy]anilino]quinazolin-1-ium-6-yl]-2-furyl]methyl-(2-methylsulfonylethyl)ammonium
   68    72     0     0     0
SMALL
USER_CHARGES

@<TRIPOS>ATOM
      1 C1          2.8506  -11.3702   -1.0877 C.3       1 <0>        -0.4058
      2 S1          3.2008  -10.0955   -2.2736 S.o2      1 <0>         1.3553
      3 O1          2.5505  -10.4562   -3.5182 O.2       1 <0>        -0.6121
      4 O2          4.6239   -9.8228   -2.2251 O.2       1 <0>        -0.6121
      5 C2          2.3585   -8.6927   -1.6101 C.3       1 <0>        -0.3422
      6 C3          2.5220   -7.4588   -2.4767 C.3       1 <0>         0.1435
      7 N1          1.8258   -6.3040   -1.9259 N.4       1 <0>        -0.7629
      8 C4          1.9979   -5.1512   -2.7666 C.3       1 <0>         0.0955
      9 C5          1.3037   -3.9715   -2.2312 C.2       1 <0>         0.1367
     10 C6          0.0344   -3.4694   -2.4006 C.2       1 <0>        -0.1734
     11 C7         -0.0332   -2.2969   -1.6108 C.2       1 <0>        -0.2328
     12 C8          1.1996   -2.1662   -1.0148 C.2       1 <0>         0.3417
     13 O3          2.0203   -3.1829   -1.3879 O.3       1 <0>        -0.3451
     14 C9          1.7781   -1.2046   -0.1090 C.ar      1 <0>        -0.1486
     15 C10         1.0259   -0.1228    0.3350 C.ar      1 <0>        -0.0180
     16 C11         1.5879    0.8085    1.2132 C.ar      1 <0>        -0.1532
     17 C12         2.8996    0.6850    1.6650 C.ar      1 <0>         0.0888
     18 C13         3.6493   -0.4117    1.2094 C.ar      1 <0>        -0.2338
     19 C14         3.0913   -1.3524    0.3263 C.ar      1 <0>        -0.0417
     20 C15         4.9553   -0.5013    1.6825 C.ar      1 <0>         0.7673
     21 N2          5.5107    0.3871    2.5281 N.ar      1 <0>        -0.7260
     22 C16         4.7000    1.3925    2.8954 C.ar      1 <0>         0.6407
     23 N3          3.4231    1.5906    2.5098 N.ar      1 <0>        -0.3435
     24 N4          5.7734   -1.5812    1.2667 N.pl3     1 <0>        -0.6169
     25 C17         6.8294   -2.2643    1.8904 C.ar      1 <0>         0.0338
     26 C18         7.8468   -2.8277    1.1203 C.ar      1 <0>        -0.0772
     27 C19         8.8963   -3.5062    1.7398 C.ar      1 <0>        -0.1610
     28 C20         8.9283   -3.6214    3.1296 C.ar      1 <0>         0.1714
     29 C21         7.9109   -3.0580    3.8997 C.ar      1 <0>         0.0048
     30 C22         6.8614   -2.3795    3.2801 C.ar      1 <0>        -0.1022
     31 Cl1         7.9256   -3.1856    5.6201 Cl        1 <0>        -0.0145
     32 O4          9.9665   -4.2886    3.7083 O.3       1 <0>        -0.3106
     33 C23        10.1403   -5.6563    3.3445 C.3       1 <0>         0.1848
     34 C24        10.7494   -6.3901    4.5002 C.ar      1 <0>        -0.0913
     35 C25        12.1365   -6.4805    4.6159 C.ar      1 <0>        -0.1137
     36 C26        12.7035   -7.1648    5.6911 C.ar      1 <0>        -0.1029
     37 C27        11.8834   -7.7587    6.6505 C.ar      1 <0>        -0.1383
     38 C28        10.4962   -7.6683    6.5346 C.ar      1 <0>         0.1306
     39 C29         9.9292   -6.9840    5.4594 C.ar      1 <0>        -0.1438
     40 F1          9.7081   -8.2384    7.4556 F         1 <0>        -0.1290
     41 H1          3.3327  -11.1229   -0.1304 H         1 <0>         0.1378
     42 H2          3.2392  -12.3309   -1.4565 H         1 <0>         0.1378
     43 H3          1.7630  -11.4463   -0.9416 H         1 <0>         0.1378
     44 H4          1.2837   -8.9135   -1.5319 H         1 <0>         0.1281
     45 H5          2.7591   -8.4628   -0.6118 H         1 <0>         0.1281
     46 H6          3.5897   -7.2072   -2.5587 H         1 <0>         0.1201
     47 H7          2.1142   -7.6578   -3.4788 H         1 <0>         0.1201
     48 H8          0.7514   -6.5267   -1.8474 H         1 <0>         0.4556
     49 H9          3.0687   -4.9127   -2.8471 H         1 <0>         0.1312
     50 H10         1.5933   -5.3634   -3.7672 H         1 <0>         0.1312
     51 H11        -0.7466   -3.8929   -3.0159 H         1 <0>         0.1862
     52 H12        -0.8783   -1.6333   -1.4936 H         1 <0>         0.1885
     53 H13        -0.0025    0.0142    0.0088 H         1 <0>         0.1729
     54 H14         0.9780    1.6463    1.5460 H         1 <0>         0.1771
     55 H15         3.6726   -2.2021   -0.0265 H         1 <0>         0.1526
     56 H16         5.1159    2.1256    3.5759 H         1 <0>         0.1068
     57 H17         5.6227   -2.0358    0.2764 H         1 <0>         0.4681
     58 H18         7.8322   -2.7426    0.0368 H         1 <0>         0.1502
     59 H19         9.6860   -3.9421    1.1337 H         1 <0>         0.1702
     60 H20         6.0661   -1.9376    3.8768 H         1 <0>         0.1603
     61 H21         9.1633   -6.0968    3.0967 H         1 <0>         0.0496
     62 H22        10.8044   -5.7216    2.4700 H         1 <0>         0.0496
     63 H23        12.7838   -6.0208    3.8738 H         1 <0>         0.1396
     64 H24        13.7836   -7.2347    5.7817 H         1 <0>         0.1505
     65 H25        12.3237   -8.2922    7.4875 H         1 <0>         0.1627
     66 H26         8.8475   -6.9190    5.3775 H         1 <0>         0.1472
     67 H27         2.2269   -6.0760   -0.9273 H         1 <0>         0.4556
     68 H28         2.8141    2.4405    2.8515 H         1 <0>         0.3421
@<TRIPOS>BOND
     1    1    2 1
     2    1   41 1
     3    1   42 1
     4    1   43 1
     5    2    3 2
     6    2    4 2
     7    2    5 1
     8    5    6 1
     9    5   44 1
    10    5   45 1
    11    6    7 1
    12    6   46 1
    13    6   47 1
    14    7    8 1
    15    7   48 1
    16    7   67 1
    17    8    9 1
    18    8   49 1
    19    8   50 1
    20    9   13 1
    21    9   10 2
    22   10   11 1
    23   10   51 1
    24   11   12 2
    25   11   52 1
    26   12   13 1
    27   12   14 1
    28   14   19 ar
    29   14   15 ar
    30   15   16 ar
    31   15   53 1
    32   16   17 ar
    33   16   54 1
    34   17   23 ar
    35   17   18 ar
    36   18   19 ar
    37   18   20 ar
    38   19   55 1
    39   20   21 ar
    40   20   24 1
    41   21   22 ar
    42   22   23 ar
    43   22   56 1
    44   23   68 1
    45   24   25 1
    46   24   57 1
    47   25   30 ar
    48   25   26 ar
    49   26   27 ar
    50   26   58 1
    51   27   28 ar
    52   27   59 1
    53   28   29 ar
    54   28   32 1
    55   29   30 ar
    56   29   31 1
    57   30   60 1
    58   32   33 1
    59   33   34 1
    60   33   61 1
    61   33   62 1
    62   34   39 ar
    63   34   35 ar
    64   35   36 ar
    65   35   63 1
    66   36   37 ar
    67   36   64 1
    68   37   38 ar
    69   37   65 1
    70   38   39 ar
    71   38   40 1
    72   39   66 1
