@<TRIPOS>MOLECULE
~{N}-[3-chloro-4-[(3-fluorophenyl)methoxy]phenyl]-6-[5-[(2-methylsulfonylethylamino)methyl]-2-furyl]quinazolin-4-amine
   66    70     0     0     0
SMALL
USER_CHARGES

@<TRIPOS>ATOM
      1 C1          2.8506  -11.3702   -1.0877 C.3       1 LAP        -0.3611
      2 S1          3.2008  -10.0955   -2.2736 S.o2      1 LAP         1.3300
      3 O1          2.5505  -10.4562   -3.5182 O.2       1 LAP        -0.6497
      4 O2          4.6239   -9.8228   -2.2251 O.2       1 LAP        -0.6497
      5 C2          2.3585   -8.6927   -1.6101 C.3       1 LAP        -0.3273
      6 C3          2.5220   -7.4588   -2.4767 C.3       1 LAP         0.1953
      7 N1          1.8258   -6.3040   -1.9259 N.3       1 LAP        -0.8224
      8 C4          1.9979   -5.1512   -2.7666 C.3       1 LAP         0.1361
      9 C5          1.3037   -3.9715   -2.2312 C.2       1 LAP         0.2446
     10 C6          0.0344   -3.4694   -2.4006 C.2       1 LAP        -0.2329
     11 C7         -0.0332   -2.2969   -1.6108 C.2       1 LAP        -0.2458
     12 C8          1.1996   -2.1662   -1.0148 C.2       1 LAP         0.2973
     13 O3          2.0203   -3.1829   -1.3879 O.3       1 LAP        -0.3614
     14 C9          1.7781   -1.2046   -0.1090 C.ar      1 LAP        -0.1323
     15 C10         1.0259   -0.1228    0.3350 C.ar      1 LAP        -0.0802
     16 C11         1.5879    0.8085    1.2132 C.ar      1 LAP        -0.1796
     17 C12         2.8996    0.6850    1.6650 C.ar      1 LAP         0.4386
     18 C13         3.6493   -0.4117    1.2094 C.ar      1 LAP        -0.2903
     19 C14         3.0913   -1.3524    0.3263 C.ar      1 LAP        -0.0772
     20 C15         4.9553   -0.5013    1.6825 C.ar      1 LAP         0.7090
     21 N2          5.5107    0.3871    2.5281 N.ar      1 LAP        -0.7524
     22 C16         4.7000    1.3925    2.8954 C.ar      1 LAP         0.6680
     23 N3          3.4231    1.5906    2.5098 N.ar      1 LAP        -0.7056
     24 N4          5.7734   -1.5812    1.2667 N.pl3     1 LAP        -0.7607
     25 C17         6.8294   -2.2643    1.8904 C.ar      1 LAP         0.1646
     26 C18         7.8468   -2.8277    1.1203 C.ar      1 LAP        -0.1651
     27 C19         8.8963   -3.5062    1.7398 C.ar      1 LAP        -0.1272
     28 C20         8.9283   -3.6214    3.1296 C.ar      1 LAP         0.0785
     29 C21         7.9109   -3.0580    3.8997 C.ar      1 LAP         0.0334
     30 C22         6.8614   -2.3795    3.2801 C.ar      1 LAP        -0.1275
     31 Cl1         7.9256   -3.1856    5.6201 Cl        1 LAP        -0.0662
     32 O4          9.9665   -4.2886    3.7083 O.3       1 LAP        -0.3216
     33 C23        10.1403   -5.6563    3.3445 C.3       1 LAP         0.1743
     34 C24        10.7494   -6.3901    4.5002 C.ar      1 LAP        -0.0678
     35 C25        12.1365   -6.4805    4.6159 C.ar      1 LAP        -0.1179
     36 C26        12.7035   -7.1648    5.6911 C.ar      1 LAP        -0.1096
     37 C27        11.8834   -7.7587    6.6505 C.ar      1 LAP        -0.1556
     38 C28        10.4962   -7.6683    6.5346 C.ar      1 LAP         0.1205
     39 C29         9.9292   -6.9840    5.4594 C.ar      1 LAP        -0.1431
     40 F1          9.7081   -8.2384    7.4556 F         1 LAP        -0.1415
     41 H1          3.3362  -11.1077   -0.1465 H         1 LAP         0.1178
     42 H2          1.7692  -11.4306   -0.9563 H         1 LAP         0.1178
     43 H3          3.2429  -12.3136   -1.4704 H         1 LAP         0.1178
     44 H4          1.3032   -8.9734   -1.5424 H         1 LAP         0.1159
     45 H5          2.7471   -8.5340   -0.5996 H         1 LAP         0.1159
     46 H6          3.5755   -7.1854   -2.5918 H         1 LAP         0.0527
     47 H7          2.1019   -7.6389   -3.4709 H         1 LAP         0.0527
     48 H8          2.1956   -6.1006   -0.9977 H         1 LAP         0.3662
     49 H9          1.6204   -5.4017   -3.7640 H         1 LAP         0.0578
     50 H10         3.0726   -4.9646   -2.8630 H         1 LAP         0.0578
     51 H11        -0.7466   -3.8929   -3.0159 H         1 LAP         0.1706
     52 H12        -0.8783   -1.6333   -1.4936 H         1 LAP         0.1602
     53 H13        -0.0025    0.0142    0.0088 H         1 LAP         0.1525
     54 H14         0.9780    1.6463    1.5460 H         1 LAP         0.1593
     55 H15         3.6726   -2.2021   -0.0265 H         1 LAP         0.1388
     56 H16         5.1159    2.1256    3.5759 H         1 LAP         0.0574
     57 H17         5.5472   -1.9201    0.3392 H         1 LAP         0.4476
     58 H18         7.8322   -2.7426    0.0368 H         1 LAP         0.1367
     59 H19         9.6860   -3.9421    1.1337 H         1 LAP         0.1467
     60 H20         6.0661   -1.9376    3.8768 H         1 LAP         0.1660
     61 H21        10.7828   -5.7052    2.4613 H         1 LAP         0.0455
     62 H22         9.1664   -6.0778    3.0818 H         1 LAP         0.0455
     63 H23        12.7838   -6.0208    3.8738 H         1 LAP         0.1428
     64 H24        13.7836   -7.2347    5.7817 H         1 LAP         0.1398
     65 H25        12.3237   -8.2922    7.4875 H         1 LAP         0.1494
     66 H26         8.8475   -6.9190    5.3775 H         1 LAP         0.1501
@<TRIPOS>BOND
     1    1    2 1
     2    2    3 2
     3    2    4 2
     4    2    5 1
     5    5    6 1
     6    6    7 1
     7    7    8 1
     8    8    9 1
     9    9   13 1
    10    9   10 2
    11   10   11 1
    12   11   12 2
    13   12   13 1
    14   12   14 1
    15   14   19 ar
    16   14   15 ar
    17   15   16 ar
    18   16   17 ar
    19   17   23 ar
    20   17   18 ar
    21   18   19 ar
    22   18   20 ar
    23   20   21 ar
    24   21   22 ar
    25   22   23 ar
    26   20   24 1
    27   24   25 1
    28   25   30 ar
    29   25   26 ar
    30   26   27 ar
    31   27   28 ar
    32   28   29 ar
    33   29   30 ar
    34   29   31 1
    35   28   32 1
    36   32   33 1
    37   33   34 1
    38   34   39 ar
    39   34   35 ar
    40   35   36 ar
    41   36   37 ar
    42   37   38 ar
    43   38   39 ar
    44   38   40 1
    45    1   41 1
    46    1   42 1
    47    1   43 1
    48    5   44 1
    49    5   45 1
    50    6   46 1
    51    6   47 1
    52    7   48 1
    53    8   49 1
    54    8   50 1
    55   10   51 1
    56   11   52 1
    57   15   53 1
    58   16   54 1
    59   19   55 1
    60   22   56 1
    61   24   57 1
    62   26   58 1
    63   27   59 1
    64   30   60 1
    65   33   61 1
    66   33   62 1
    67   35   63 1
    68   36   64 1
    69   37   65 1
    70   39   66 1
