~{N}-[3-chloro-4-[(3-fluorophenyl)methoxy]phenyl]-6-[5-[(2-methylsulfonylethylamino)methyl]-2-furyl]quinazolin-4-amine
                    3D
 Structure written by MMmdl.
 67 71  0  0  1  0            999 V2000
    2.8506  -11.3702   -1.0877 C   0  0  0  0  0  0
    3.2008  -10.0955   -2.2736 S   0  0  0  0  0  0
    2.5505  -10.4562   -3.5182 O   0  0  0  0  0  0
    4.6239   -9.8228   -2.2251 O   0  0  0  0  0  0
    2.3585   -8.6927   -1.6101 C   0  0  0  0  0  0
    2.5220   -7.4588   -2.4767 C   0  0  0  0  0  0
    1.8258   -6.3040   -1.9259 N   0  3  0  0  0  0
    1.9979   -5.1512   -2.7666 C   0  0  0  0  0  0
    1.3037   -3.9715   -2.2312 C   0  0  0  0  0  0
    0.0344   -3.4694   -2.4006 C   0  0  0  0  0  0
   -0.0332   -2.2969   -1.6108 C   0  0  0  0  0  0
    1.1996   -2.1662   -1.0148 C   0  0  0  0  0  0
    2.0203   -3.1829   -1.3879 O   0  0  0  0  0  0
    1.7781   -1.2046   -0.1090 C   0  0  0  0  0  0
    1.0259   -0.1228    0.3350 C   0  0  0  0  0  0
    1.5879    0.8085    1.2132 C   0  0  0  0  0  0
    2.8996    0.6850    1.6650 C   0  0  0  0  0  0
    3.6493   -0.4117    1.2094 C   0  0  0  0  0  0
    3.0913   -1.3524    0.3263 C   0  0  0  0  0  0
    4.9553   -0.5013    1.6825 C   0  0  0  0  0  0
    5.5107    0.3871    2.5281 N   0  0  0  0  0  0
    4.7000    1.3925    2.8954 C   0  0  0  0  0  0
    3.4231    1.5906    2.5098 N   0  0  0  0  0  0
    5.7734   -1.5812    1.2667 N   0  0  0  0  0  0
    6.8294   -2.2643    1.8904 C   0  0  0  0  0  0
    7.8468   -2.8277    1.1203 C   0  0  0  0  0  0
    8.8963   -3.5062    1.7398 C   0  0  0  0  0  0
    8.9283   -3.6214    3.1296 C   0  0  0  0  0  0
    7.9109   -3.0580    3.8997 C   0  0  0  0  0  0
    6.8614   -2.3795    3.2801 C   0  0  0  0  0  0
    7.9256   -3.1856    5.6201 Cl  0  0  0  0  0  0
    9.9665   -4.2886    3.7083 O   0  0  0  0  0  0
   10.1403   -5.6562    3.3445 C   0  0  0  0  0  0
   10.7494   -6.3901    4.5002 C   0  0  0  0  0  0
   12.1365   -6.4805    4.6159 C   0  0  0  0  0  0
   12.7035   -7.1648    5.6911 C   0  0  0  0  0  0
   11.8834   -7.7587    6.6505 C   0  0  0  0  0  0
   10.4962   -7.6683    6.5346 C   0  0  0  0  0  0
    9.9293   -6.9840    5.4594 C   0  0  0  0  0  0
    9.7081   -8.2384    7.4556 F   0  0  0  0  0  0
    3.3327  -11.1229   -0.1304 H   0  0  0  0  0  0
    3.2392  -12.3309   -1.4565 H   0  0  0  0  0  0
    1.7630  -11.4463   -0.9416 H   0  0  0  0  0  0
    1.2837   -8.9135   -1.5319 H   0  0  0  0  0  0
    2.7591   -8.4628   -0.6118 H   0  0  0  0  0  0
    3.5897   -7.2072   -2.5587 H   0  0  0  0  0  0
    2.1142   -7.6578   -3.4788 H   0  0  0  0  0  0
    0.7514   -6.5267   -1.8474 H   0  0  0  0  0  0
    3.0687   -4.9127   -2.8471 H   0  0  0  0  0  0
    1.5933   -5.3634   -3.7672 H   0  0  0  0  0  0
   -0.7466   -3.8929   -3.0159 H   0  0  0  0  0  0
   -0.8783   -1.6333   -1.4936 H   0  0  0  0  0  0
   -0.0025    0.0142    0.0088 H   0  0  0  0  0  0
    0.9780    1.6463    1.5460 H   0  0  0  0  0  0
    3.6726   -2.2021   -0.0265 H   0  0  0  0  0  0
    5.1159    2.1256    3.5759 H   0  0  0  0  0  0
    5.6227   -2.0358    0.2764 H   0  0  0  0  0  0
    7.8322   -2.7426    0.0368 H   0  0  0  0  0  0
    9.6860   -3.9421    1.1337 H   0  0  0  0  0  0
    6.0661   -1.9376    3.8768 H   0  0  0  0  0  0
    9.1633   -6.0967    3.0966 H   0  0  0  0  0  0
   10.8044   -5.7215    2.4700 H   0  0  0  0  0  0
   12.7838   -6.0208    3.8739 H   0  0  0  0  0  0
   13.7837   -7.2347    5.7818 H   0  0  0  0  0  0
   12.3237   -8.2922    7.4875 H   0  0  0  0  0  0
    8.8475   -6.9190    5.3775 H   0  0  0  0  0  0
    2.2269   -6.0760   -0.9273 H   0  0  0  0  0  0
  1  2  1  0  0  0
  1 41  1  0  0  0
  1 42  1  0  0  0
  1 43  1  0  0  0
  2  3  2  0  0  0
  2  4  2  0  0  0
  2  5  1  0  0  0
  5  6  1  0  0  0
  5 44  1  0  0  0
  5 45  1  0  0  0
  6  7  1  0  0  0
  6 46  1  0  0  0
  6 47  1  0  0  0
  7  8  1  0  0  0
  7 48  1  0  0  0
  7 67  1  0  0  0
  8  9  1  0  0  0
  8 49  1  0  0  0
  8 50  1  0  0  0
  9 13  1  0  0  0
  9 10  2  0  0  0
 10 11  1  0  0  0
 10 51  1  0  0  0
 11 12  2  0  0  0
 11 52  1  0  0  0
 12 13  1  0  0  0
 12 14  1  0  0  0
 14 19  2  0  0  0
 14 15  1  0  0  0
 15 16  2  0  0  0
 15 53  1  0  0  0
 16 17  1  0  0  0
 16 54  1  0  0  0
 17 23  1  0  0  0
 17 18  2  0  0  0
 18 19  1  0  0  0
 18 20  1  0  0  0
 19 55  1  0  0  0
 20 21  2  0  0  0
 20 24  1  0  0  0
 21 22  1  0  0  0
 22 23  2  0  0  0
 22 56  1  0  0  0
 24 25  1  0  0  0
 24 57  1  0  0  0
 25 30  2  0  0  0
 25 26  1  0  0  0
 26 27  2  0  0  0
 26 58  1  0  0  0
 27 28  1  0  0  0
 27 59  1  0  0  0
 28 29  2  0  0  0
 28 32  1  0  0  0
 29 30  1  0  0  0
 29 31  1  0  0  0
 30 60  1  0  0  0
 32 33  1  0  0  0
 33 34  1  0  0  0
 33 61  1  0  0  0
 33 62  1  0  0  0
 34 39  2  0  0  0
 34 35  1  0  0  0
 35 36  2  0  0  0
 35 63  1  0  0  0
 36 37  1  0  0  0
 36 64  1  0  0  0
 37 38  2  0  0  0
 37 65  1  0  0  0
 38 39  1  0  0  0
 38 40  1  0  0  0
 39 66  1  0  0  0
M  CHG  1   7   1
M  END
> <s_m_source_file>
/cbio/jclab/home/andrrizzi/epik_inhibitors/output/Lapatinib/Lapatinib-input.mol2

> <i_m_source_file_index>
1

> <r_lp_tautomer_probability>
0.999978000241998

> <r_epik_Ionization_Penalty>
  0.0371

> <r_epik_Ionization_Penalty_Charging>
  0.0369

> <r_epik_Ionization_Penalty_Neutral>
  0.0002

> <r_epik_State_Penalty>
  0.0309

> <i_epik_Tot_Q>
1

$$$$
~{N}-[3-chloro-4-[(3-fluorophenyl)methoxy]phenyl]-6-[5-[(2-methylsulfonylethylamino)methyl]-2-furyl]quinazolin-4-amine
                    3D
 Structure written by MMmdl.
 66 70  0  0  1  0            999 V2000
    2.8506  -11.3702   -1.0877 C   0  0  0  0  0  0
    3.2008  -10.0955   -2.2736 S   0  0  0  0  0  0
    2.5505  -10.4562   -3.5182 O   0  0  0  0  0  0
    4.6239   -9.8228   -2.2251 O   0  0  0  0  0  0
    2.3585   -8.6927   -1.6101 C   0  0  0  0  0  0
    2.5220   -7.4588   -2.4767 C   0  0  0  0  0  0
    1.8258   -6.3040   -1.9259 N   0  0  0  0  0  0
    1.9979   -5.1512   -2.7666 C   0  0  0  0  0  0
    1.3037   -3.9715   -2.2312 C   0  0  0  0  0  0
    0.0344   -3.4694   -2.4006 C   0  0  0  0  0  0
   -0.0332   -2.2969   -1.6108 C   0  0  0  0  0  0
    1.1996   -2.1662   -1.0148 C   0  0  0  0  0  0
    2.0203   -3.1829   -1.3879 O   0  0  0  0  0  0
    1.7781   -1.2046   -0.1090 C   0  0  0  0  0  0
    1.0259   -0.1228    0.3350 C   0  0  0  0  0  0
    1.5879    0.8085    1.2132 C   0  0  0  0  0  0
    2.8996    0.6850    1.6650 C   0  0  0  0  0  0
    3.6493   -0.4117    1.2094 C   0  0  0  0  0  0
    3.0913   -1.3524    0.3263 C   0  0  0  0  0  0
    4.9553   -0.5013    1.6825 C   0  0  0  0  0  0
    5.5107    0.3871    2.5281 N   0  0  0  0  0  0
    4.7000    1.3925    2.8954 C   0  0  0  0  0  0
    3.4231    1.5906    2.5098 N   0  0  0  0  0  0
    5.7734   -1.5812    1.2667 N   0  0  0  0  0  0
    6.8294   -2.2643    1.8904 C   0  0  0  0  0  0
    7.8468   -2.8277    1.1203 C   0  0  0  0  0  0
    8.8963   -3.5062    1.7398 C   0  0  0  0  0  0
    8.9283   -3.6214    3.1296 C   0  0  0  0  0  0
    7.9109   -3.0580    3.8997 C   0  0  0  0  0  0
    6.8614   -2.3795    3.2801 C   0  0  0  0  0  0
    7.9256   -3.1856    5.6201 Cl  0  0  0  0  0  0
    9.9665   -4.2886    3.7083 O   0  0  0  0  0  0
   10.1403   -5.6562    3.3445 C   0  0  0  0  0  0
   10.7494   -6.3901    4.5002 C   0  0  0  0  0  0
   12.1365   -6.4805    4.6159 C   0  0  0  0  0  0
   12.7035   -7.1648    5.6911 C   0  0  0  0  0  0
   11.8834   -7.7587    6.6505 C   0  0  0  0  0  0
   10.4962   -7.6683    6.5346 C   0  0  0  0  0  0
    9.9293   -6.9840    5.4594 C   0  0  0  0  0  0
    9.7081   -8.2384    7.4556 F   0  0  0  0  0  0
    3.3327  -11.1229   -0.1304 H   0  0  0  0  0  0
    3.2392  -12.3309   -1.4565 H   0  0  0  0  0  0
    1.7630  -11.4463   -0.9416 H   0  0  0  0  0  0
    1.2837   -8.9135   -1.5319 H   0  0  0  0  0  0
    2.7591   -8.4628   -0.6118 H   0  0  0  0  0  0
    3.5897   -7.2072   -2.5587 H   0  0  0  0  0  0
    2.1142   -7.6578   -3.4788 H   0  0  0  0  0  0
    0.7514   -6.5267   -1.8474 H   0  0  0  0  0  0
    3.0687   -4.9127   -2.8471 H   0  0  0  0  0  0
    1.5933   -5.3634   -3.7672 H   0  0  0  0  0  0
   -0.7466   -3.8929   -3.0159 H   0  0  0  0  0  0
   -0.8783   -1.6333   -1.4936 H   0  0  0  0  0  0
   -0.0025    0.0142    0.0088 H   0  0  0  0  0  0
    0.9780    1.6463    1.5460 H   0  0  0  0  0  0
    3.6726   -2.2021   -0.0265 H   0  0  0  0  0  0
    5.1159    2.1256    3.5759 H   0  0  0  0  0  0
    5.6227   -2.0358    0.2764 H   0  0  0  0  0  0
    7.8322   -2.7426    0.0368 H   0  0  0  0  0  0
    9.6860   -3.9421    1.1337 H   0  0  0  0  0  0
    6.0661   -1.9376    3.8768 H   0  0  0  0  0  0
    9.1633   -6.0967    3.0966 H   0  0  0  0  0  0
   10.8044   -5.7215    2.4700 H   0  0  0  0  0  0
   12.7838   -6.0208    3.8739 H   0  0  0  0  0  0
   13.7837   -7.2347    5.7818 H   0  0  0  0  0  0
   12.3237   -8.2922    7.4875 H   0  0  0  0  0  0
    8.8475   -6.9190    5.3775 H   0  0  0  0  0  0
  1  2  1  0  0  0
  1 41  1  0  0  0
  1 42  1  0  0  0
  1 43  1  0  0  0
  2  3  2  0  0  0
  2  4  2  0  0  0
  2  5  1  0  0  0
  5  6  1  0  0  0
  5 44  1  0  0  0
  5 45  1  0  0  0
  6  7  1  0  0  0
  6 46  1  0  0  0
  6 47  1  0  0  0
  7  8  1  0  0  0
  7 48  1  0  0  0
  8  9  1  0  0  0
  8 49  1  0  0  0
  8 50  1  0  0  0
  9 13  1  0  0  0
  9 10  2  0  0  0
 10 11  1  0  0  0
 10 51  1  0  0  0
 11 12  2  0  0  0
 11 52  1  0  0  0
 12 13  1  0  0  0
 12 14  1  0  0  0
 14 19  2  0  0  0
 14 15  1  0  0  0
 15 16  2  0  0  0
 15 53  1  0  0  0
 16 17  1  0  0  0
 16 54  1  0  0  0
 17 23  1  0  0  0
 17 18  2  0  0  0
 18 19  1  0  0  0
 18 20  1  0  0  0
 19 55  1  0  0  0
 20 21  2  0  0  0
 20 24  1  0  0  0
 21 22  1  0  0  0
 22 23  2  0  0  0
 22 56  1  0  0  0
 24 25  1  0  0  0
 24 57  1  0  0  0
 25 30  2  0  0  0
 25 26  1  0  0  0
 26 27  2  0  0  0
 26 58  1  0  0  0
 27 28  1  0  0  0
 27 59  1  0  0  0
 28 29  2  0  0  0
 28 32  1  0  0  0
 29 30  1  0  0  0
 29 31  1  0  0  0
 30 60  1  0  0  0
 32 33  1  0  0  0
 33 34  1  0  0  0
 33 61  1  0  0  0
 33 62  1  0  0  0
 34 39  2  0  0  0
 34 35  1  0  0  0
 35 36  2  0  0  0
 35 63  1  0  0  0
 36 37  1  0  0  0
 36 64  1  0  0  0
 37 38  2  0  0  0
 37 65  1  0  0  0
 38 39  1  0  0  0
 38 40  1  0  0  0
 39 66  1  0  0  0
M  END
> <s_m_source_file>
/cbio/jclab/home/andrrizzi/epik_inhibitors/output/Lapatinib/Lapatinib-input.mol2

> <i_m_source_file_index>
1

> <r_lp_tautomer_probability>
0.999978000241998

> <r_epik_Ionization_Penalty>
  1.6628

> <r_epik_Ionization_Penalty_Charging>
  0.0000

> <r_epik_Ionization_Penalty_Neutral>
  1.6628

> <r_epik_State_Penalty>
  1.7656

> <i_epik_Tot_Q>
0

$$$$
