~{N}-[3-chloro-4-[(3-fluorophenyl)methoxy]phenyl]-6-[5-[(2-methylsulfonylethylamino)methyl]-2-furyl]quinazolin-4-amine
                    3D
 Structure written by MMmdl.
 67 71  0  0  1  0            999 V2000
    2.8506  -11.3702   -1.0877 C   0  0  0  0  0  0
    3.2008  -10.0955   -2.2736 S   0  0  0  0  0  0
    2.5505  -10.4562   -3.5182 O   0  0  0  0  0  0
    4.6239   -9.8228   -2.2251 O   0  0  0  0  0  0
    2.3585   -8.6927   -1.6101 C   0  0  0  0  0  0
    2.5220   -7.4588   -2.4767 C   0  0  0  0  0  0
    1.8258   -6.3040   -1.9259 N   0  3  0  0  0  0
    1.9979   -5.1512   -2.7666 C   0  0  0  0  0  0
    1.3037   -3.9715   -2.2312 C   0  0  0  0  0  0
    0.0344   -3.4694   -2.4006 C   0  0  0  0  0  0
   -0.0332   -2.2969   -1.6108 C   0  0  0  0  0  0
    1.1996   -2.1662   -1.0148 C   0  0  0  0  0  0
    2.0203   -3.1829   -1.3879 O   0  0  0  0  0  0
    1.7781   -1.2046   -0.1090 C   0  0  0  0  0  0
    1.0259   -0.1228    0.3350 C   0  0  0  0  0  0
    1.5879    0.8085    1.2132 C   0  0  0  0  0  0
    2.8996    0.6850    1.6650 C   0  0  0  0  0  0
    3.6493   -0.4117    1.2094 C   0  0  0  0  0  0
    3.0913   -1.3524    0.3263 C   0  0  0  0  0  0
    4.9553   -0.5013    1.6825 C   0  0  0  0  0  0
    5.5107    0.3871    2.5281 N   0  0  0  0  0  0
    4.7000    1.3925    2.8954 C   0  0  0  0  0  0
    3.4231    1.5906    2.5098 N   0  0  0  0  0  0
    5.7734   -1.5812    1.2667 N   0  0  0  0  0  0
    6.8294   -2.2643    1.8904 C   0  0  0  0  0  0
    7.8468   -2.8277    1.1203 C   0  0  0  0  0  0
    8.8963   -3.5062    1.7398 C   0  0  0  0  0  0
    8.9283   -3.6214    3.1296 C   0  0  0  0  0  0
    7.9109   -3.0580    3.8997 C   0  0  0  0  0  0
    6.8614   -2.3795    3.2801 C   0  0  0  0  0  0
    7.9256   -3.1856    5.6201 Cl  0  0  0  0  0  0
    9.9665   -4.2886    3.7083 O   0  0  0  0  0  0
   10.1403   -5.6563    3.3445 C   0  0  0  0  0  0
   10.7494   -6.3901    4.5002 C   0  0  0  0  0  0
   12.1365   -6.4805    4.6159 C   0  0  0  0  0  0
   12.7035   -7.1648    5.6911 C   0  0  0  0  0  0
   11.8834   -7.7587    6.6505 C   0  0  0  0  0  0
   10.4962   -7.6683    6.5346 C   0  0  0  0  0  0
    9.9292   -6.9840    5.4594 C   0  0  0  0  0  0
    9.7081   -8.2384    7.4556 F   0  0  0  0  0  0
    3.3327  -11.1229   -0.1304 H   0  0  0  0  0  0
    3.2392  -12.3309   -1.4565 H   0  0  0  0  0  0
    1.7630  -11.4463   -0.9416 H   0  0  0  0  0  0
    1.2837   -8.9135   -1.5319 H   0  0  0  0  0  0
    2.7591   -8.4628   -0.6118 H   0  0  0  0  0  0
    3.5897   -7.2072   -2.5587 H   0  0  0  0  0  0
    2.1142   -7.6578   -3.4788 H   0  0  0  0  0  0
    0.7514   -6.5267   -1.8474 H   0  0  0  0  0  0
    3.0687   -4.9127   -2.8471 H   0  0  0  0  0  0
    1.5933   -5.3634   -3.7672 H   0  0  0  0  0  0
   -0.7466   -3.8929   -3.0159 H   0  0  0  0  0  0
   -0.8783   -1.6333   -1.4936 H   0  0  0  0  0  0
   -0.0025    0.0142    0.0088 H   0  0  0  0  0  0
    0.9780    1.6463    1.5460 H   0  0  0  0  0  0
    3.6726   -2.2021   -0.0265 H   0  0  0  0  0  0
    5.1159    2.1256    3.5759 H   0  0  0  0  0  0
    5.6227   -2.0358    0.2764 H   0  0  0  0  0  0
    7.8322   -2.7426    0.0368 H   0  0  0  0  0  0
    9.6860   -3.9421    1.1337 H   0  0  0  0  0  0
    6.0661   -1.9376    3.8768 H   0  0  0  0  0  0
    9.1633   -6.0968    3.0967 H   0  0  0  0  0  0
   10.8044   -5.7216    2.4700 H   0  0  0  0  0  0
   12.7838   -6.0208    3.8738 H   0  0  0  0  0  0
   13.7836   -7.2347    5.7817 H   0  0  0  0  0  0
   12.3237   -8.2922    7.4875 H   0  0  0  0  0  0
    8.8475   -6.9190    5.3775 H   0  0  0  0  0  0
    2.2269   -6.0760   -0.9273 H   0  0  0  0  0  0
  1  2  1  0  0  0
  1 41  1  0  0  0
  1 42  1  0  0  0
  1 43  1  0  0  0
  2  3  2  0  0  0
  2  4  2  0  0  0
  2  5  1  0  0  0
  5  6  1  0  0  0
  5 44  1  0  0  0
  5 45  1  0  0  0
  6  7  1  0  0  0
  6 46  1  0  0  0
  6 47  1  0  0  0
  7  8  1  0  0  0
  7 48  1  0  0  0
  7 67  1  0  0  0
  8  9  1  0  0  0
  8 49  1  0  0  0
  8 50  1  0  0  0
  9 13  1  0  0  0
  9 10  2  0  0  0
 10 11  1  0  0  0
 10 51  1  0  0  0
 11 12  2  0  0  0
 11 52  1  0  0  0
 12 13  1  0  0  0
 12 14  1  0  0  0
 14 19  2  0  0  0
 14 15  1  0  0  0
 15 16  2  0  0  0
 15 53  1  0  0  0
 16 17  1  0  0  0
 16 54  1  0  0  0
 17 23  1  0  0  0
 17 18  2  0  0  0
 18 19  1  0  0  0
 18 20  1  0  0  0
 19 55  1  0  0  0
 20 21  2  0  0  0
 20 24  1  0  0  0
 21 22  1  0  0  0
 22 23  2  0  0  0
 22 56  1  0  0  0
 24 25  1  0  0  0
 24 57  1  0  0  0
 25 30  2  0  0  0
 25 26  1  0  0  0
 26 27  2  0  0  0
 26 58  1  0  0  0
 27 28  1  0  0  0
 27 59  1  0  0  0
 28 29  2  0  0  0
 28 32  1  0  0  0
 29 30  1  0  0  0
 29 31  1  0  0  0
 30 60  1  0  0  0
 32 33  1  0  0  0
 33 34  1  0  0  0
 33 61  1  0  0  0
 33 62  1  0  0  0
 34 39  2  0  0  0
 34 35  1  0  0  0
 35 36  2  0  0  0
 35 63  1  0  0  0
 36 37  1  0  0  0
 36 64  1  0  0  0
 37 38  2  0  0  0
 37 65  1  0  0  0
 38 39  1  0  0  0
 38 40  1  0  0  0
 39 66  1  0  0  0
M  CHG  1   7   1
M  END
> <s_m_source_file>
/Users/andrea/Development/mcce-charges/epik_inhibitors/output/Lapatinib/Lapatinib-input.mol2

> <i_m_source_file_index>
1

> <r_lp_tautomer_probability>
0.999978000241998

> <r_epik_Ionization_Penalty>
  0.0371

> <r_epik_Ionization_Penalty_Charging>
  0.0369

> <r_epik_Ionization_Penalty_Neutral>
  0.0002

> <r_epik_State_Penalty>
  0.0384

> <i_epik_Tot_Q>
1

$$$$
~{N}-[3-chloro-4-[(3-fluorophenyl)methoxy]phenyl]-6-[5-[(2-methylsulfonylethylamino)methyl]-2-furyl]quinazolin-4-amine
                    3D
 Structure written by MMmdl.
 66 70  0  0  1  0            999 V2000
    2.8506  -11.3702   -1.0877 C   0  0  0  0  0  0
    3.2008  -10.0955   -2.2736 S   0  0  0  0  0  0
    2.5505  -10.4562   -3.5182 O   0  0  0  0  0  0
    4.6239   -9.8228   -2.2251 O   0  0  0  0  0  0
    2.3585   -8.6927   -1.6101 C   0  0  0  0  0  0
    2.5220   -7.4588   -2.4767 C   0  0  0  0  0  0
    1.8258   -6.3040   -1.9259 N   0  0  0  0  0  0
    1.9979   -5.1512   -2.7666 C   0  0  0  0  0  0
    1.3037   -3.9715   -2.2312 C   0  0  0  0  0  0
    0.0344   -3.4694   -2.4006 C   0  0  0  0  0  0
   -0.0332   -2.2969   -1.6108 C   0  0  0  0  0  0
    1.1996   -2.1662   -1.0148 C   0  0  0  0  0  0
    2.0203   -3.1829   -1.3879 O   0  0  0  0  0  0
    1.7781   -1.2046   -0.1090 C   0  0  0  0  0  0
    1.0259   -0.1228    0.3350 C   0  0  0  0  0  0
    1.5879    0.8085    1.2132 C   0  0  0  0  0  0
    2.8996    0.6850    1.6650 C   0  0  0  0  0  0
    3.6493   -0.4117    1.2094 C   0  0  0  0  0  0
    3.0913   -1.3524    0.3263 C   0  0  0  0  0  0
    4.9553   -0.5013    1.6825 C   0  0  0  0  0  0
    5.5107    0.3871    2.5281 N   0  0  0  0  0  0
    4.7000    1.3925    2.8954 C   0  0  0  0  0  0
    3.4231    1.5906    2.5098 N   0  0  0  0  0  0
    5.7734   -1.5812    1.2667 N   0  0  0  0  0  0
    6.8294   -2.2643    1.8904 C   0  0  0  0  0  0
    7.8468   -2.8277    1.1203 C   0  0  0  0  0  0
    8.8963   -3.5062    1.7398 C   0  0  0  0  0  0
    8.9283   -3.6214    3.1296 C   0  0  0  0  0  0
    7.9109   -3.0580    3.8997 C   0  0  0  0  0  0
    6.8614   -2.3795    3.2801 C   0  0  0  0  0  0
    7.9256   -3.1856    5.6201 Cl  0  0  0  0  0  0
    9.9665   -4.2886    3.7083 O   0  0  0  0  0  0
   10.1403   -5.6563    3.3445 C   0  0  0  0  0  0
   10.7494   -6.3901    4.5002 C   0  0  0  0  0  0
   12.1365   -6.4805    4.6159 C   0  0  0  0  0  0
   12.7035   -7.1648    5.6911 C   0  0  0  0  0  0
   11.8834   -7.7587    6.6505 C   0  0  0  0  0  0
   10.4962   -7.6683    6.5346 C   0  0  0  0  0  0
    9.9292   -6.9840    5.4594 C   0  0  0  0  0  0
    9.7081   -8.2384    7.4556 F   0  0  0  0  0  0
    3.3327  -11.1229   -0.1304 H   0  0  0  0  0  0
    3.2392  -12.3309   -1.4565 H   0  0  0  0  0  0
    1.7630  -11.4463   -0.9416 H   0  0  0  0  0  0
    1.2837   -8.9135   -1.5319 H   0  0  0  0  0  0
    2.7591   -8.4628   -0.6118 H   0  0  0  0  0  0
    3.5897   -7.2072   -2.5587 H   0  0  0  0  0  0
    2.1142   -7.6578   -3.4788 H   0  0  0  0  0  0
    0.7514   -6.5267   -1.8474 H   0  0  0  0  0  0
    3.0687   -4.9127   -2.8471 H   0  0  0  0  0  0
    1.5933   -5.3634   -3.7672 H   0  0  0  0  0  0
   -0.7466   -3.8929   -3.0159 H   0  0  0  0  0  0
   -0.8783   -1.6333   -1.4936 H   0  0  0  0  0  0
   -0.0025    0.0142    0.0088 H   0  0  0  0  0  0
    0.9780    1.6463    1.5460 H   0  0  0  0  0  0
    3.6726   -2.2021   -0.0265 H   0  0  0  0  0  0
    5.1159    2.1256    3.5759 H   0  0  0  0  0  0
    5.6227   -2.0358    0.2764 H   0  0  0  0  0  0
    7.8322   -2.7426    0.0368 H   0  0  0  0  0  0
    9.6860   -3.9421    1.1337 H   0  0  0  0  0  0
    6.0661   -1.9376    3.8768 H   0  0  0  0  0  0
    9.1633   -6.0968    3.0967 H   0  0  0  0  0  0
   10.8044   -5.7216    2.4700 H   0  0  0  0  0  0
   12.7838   -6.0208    3.8738 H   0  0  0  0  0  0
   13.7836   -7.2347    5.7817 H   0  0  0  0  0  0
   12.3237   -8.2922    7.4875 H   0  0  0  0  0  0
    8.8475   -6.9190    5.3775 H   0  0  0  0  0  0
  1  2  1  0  0  0
  1 41  1  0  0  0
  1 42  1  0  0  0
  1 43  1  0  0  0
  2  3  2  0  0  0
  2  4  2  0  0  0
  2  5  1  0  0  0
  5  6  1  0  0  0
  5 44  1  0  0  0
  5 45  1  0  0  0
  6  7  1  0  0  0
  6 46  1  0  0  0
  6 47  1  0  0  0
  7  8  1  0  0  0
  7 48  1  0  0  0
  8  9  1  0  0  0
  8 49  1  0  0  0
  8 50  1  0  0  0
  9 13  1  0  0  0
  9 10  2  0  0  0
 10 11  1  0  0  0
 10 51  1  0  0  0
 11 12  2  0  0  0
 11 52  1  0  0  0
 12 13  1  0  0  0
 12 14  1  0  0  0
 14 19  2  0  0  0
 14 15  1  0  0  0
 15 16  2  0  0  0
 15 53  1  0  0  0
 16 17  1  0  0  0
 16 54  1  0  0  0
 17 23  1  0  0  0
 17 18  2  0  0  0
 18 19  1  0  0  0
 18 20  1  0  0  0
 19 55  1  0  0  0
 20 21  2  0  0  0
 20 24  1  0  0  0
 21 22  1  0  0  0
 22 23  2  0  0  0
 22 56  1  0  0  0
 24 25  1  0  0  0
 24 57  1  0  0  0
 25 30  2  0  0  0
 25 26  1  0  0  0
 26 27  2  0  0  0
 26 58  1  0  0  0
 27 28  1  0  0  0
 27 59  1  0  0  0
 28 29  2  0  0  0
 28 32  1  0  0  0
 29 30  1  0  0  0
 29 31  1  0  0  0
 30 60  1  0  0  0
 32 33  1  0  0  0
 33 34  1  0  0  0
 33 61  1  0  0  0
 33 62  1  0  0  0
 34 39  2  0  0  0
 34 35  1  0  0  0
 35 36  2  0  0  0
 35 63  1  0  0  0
 36 37  1  0  0  0
 36 64  1  0  0  0
 37 38  2  0  0  0
 37 65  1  0  0  0
 38 39  1  0  0  0
 38 40  1  0  0  0
 39 66  1  0  0  0
M  END
> <s_m_source_file>
/Users/andrea/Development/mcce-charges/epik_inhibitors/output/Lapatinib/Lapatinib-input.mol2

> <i_m_source_file_index>
1

> <r_lp_tautomer_probability>
0.999978000241998

> <r_epik_Ionization_Penalty>
  1.6628

> <r_epik_Ionization_Penalty_Charging>
  0.0000

> <r_epik_Ionization_Penalty_Neutral>
  1.6628

> <r_epik_State_Penalty>
  1.7797

> <i_epik_Tot_Q>
0

$$$$
~{N}-[3-chloro-4-[(3-fluorophenyl)methoxy]phenyl]-6-[5-[(2-methylsulfonylethylamino)methyl]-2-furyl]quinazolin-4-amine
                    3D
 Structure written by MMmdl.
 68 72  0  0  1  0            999 V2000
    2.8503  -11.3698   -1.0891 C   0  0  0  0  0  0
    3.2007  -10.0950   -2.2748 S   0  0  0  0  0  0
    2.5506  -10.4556   -3.5196 O   0  0  0  0  0  0
    4.6239   -9.8224   -2.2261 O   0  0  0  0  0  0
    2.3584   -8.6923   -1.6113 C   0  0  0  0  0  0
    2.5222   -7.4583   -2.4777 C   0  0  0  0  0  0
    1.8259   -6.3035   -1.9269 N   0  3  0  0  0  0
    1.9983   -5.1506   -2.7675 C   0  0  0  0  0  0
    1.3040   -3.9709   -2.2320 C   0  0  0  0  0  0
    0.0348   -3.4687   -2.4016 C   0  0  0  0  0  0
   -0.0328   -2.2963   -1.6117 C   0  0  0  0  0  0
    1.1999   -2.1657   -1.0155 C   0  0  0  0  0  0
    2.0206   -3.1825   -1.3885 O   0  0  0  0  0  0
    1.7783   -1.2043   -0.1094 C   0  0  0  0  0  0
    1.0260   -0.1225    0.3346 C   0  0  0  0  0  0
    1.5879    0.8085    1.2133 C   0  0  0  0  0  0
    2.8996    0.6849    1.6651 C   0  0  0  0  0  0
    3.6493   -0.4117    1.2094 C   0  0  0  0  0  0
    3.0914   -1.3522    0.3260 C   0  0  0  0  0  0
    4.9553   -0.5014    1.6826 C   0  0  0  0  0  0
    5.5107    0.3871    2.5281 N   0  0  0  0  0  0
    4.7000    1.3924    2.8955 C   0  0  0  0  0  0
    3.4230    1.5905    2.5099 N   0  0  0  0  0  0
    5.7734   -1.5812    1.2667 N   0  3  0  0  0  0
    6.8294   -2.2643    1.8904 C   0  0  0  0  0  0
    7.8468   -2.8276    1.1202 C   0  0  0  0  0  0
    8.8963   -3.5062    1.7397 C   0  0  0  0  0  0
    8.9283   -3.6215    3.1295 C   0  0  0  0  0  0
    7.9109   -3.0582    3.8996 C   0  0  0  0  0  0
    6.8614   -2.3796    3.2801 C   0  0  0  0  0  0
    7.9256   -3.1859    5.6200 Cl  0  0  0  0  0  0
    9.9665   -4.2887    3.7081 O   0  0  0  0  0  0
   10.1404   -5.6564    3.3442 C   0  0  0  0  0  0
   10.7495   -6.3902    4.4999 C   0  0  0  0  0  0
   12.1366   -6.4806    4.6156 C   0  0  0  0  0  0
   12.7036   -7.1650    5.6907 C   0  0  0  0  0  0
   11.8835   -7.7590    6.6501 C   0  0  0  0  0  0
   10.4963   -7.6686    6.5342 C   0  0  0  0  0  0
    9.9293   -6.9842    5.4590 C   0  0  0  0  0  0
    9.7082   -8.2388    7.4551 F   0  0  0  0  0  0
    3.3323  -11.1227   -0.1318 H   0  0  0  0  0  0
    3.2388  -12.3305   -1.4580 H   0  0  0  0  0  0
    1.7626  -11.4459   -0.9432 H   0  0  0  0  0  0
    1.2836   -8.9130   -1.5333 H   0  0  0  0  0  0
    2.7589   -8.4625   -0.6129 H   0  0  0  0  0  0
    3.5899   -7.2067   -2.5595 H   0  0  0  0  0  0
    2.1145   -7.6572   -3.4799 H   0  0  0  0  0  0
    0.7516   -6.5261   -1.8486 H   0  0  0  0  0  0
    3.0691   -4.9122   -2.8478 H   0  0  0  0  0  0
    1.5938   -5.3626   -3.7682 H   0  0  0  0  0  0
   -0.7461   -3.8921   -3.0171 H   0  0  0  0  0  0
   -0.8779   -1.6327   -1.4945 H   0  0  0  0  0  0
    0.0818   -0.0111    0.0247 H   0  0  0  0  0  0
    1.0455    1.5859    1.5318 H   0  0  0  0  0  0
    3.6384   -2.1277    0.0107 H   0  0  0  0  0  0
    5.0308    2.0980    3.5222 H   0  0  0  0  0  0
    2.8140    2.4403    2.8518 H   0  0  0  0  0  0
    7.8322   -2.7424    0.0367 H   0  0  0  0  0  0
    9.6861   -3.9420    1.1335 H   0  0  0  0  0  0
    6.0661   -1.9378    3.8768 H   0  0  0  0  0  0
    9.1634   -6.0968    3.0963 H   0  0  0  0  0  0
   10.8045   -5.7216    2.4697 H   0  0  0  0  0  0
   12.7839   -6.0208    3.8735 H   0  0  0  0  0  0
   13.7837   -7.2349    5.7813 H   0  0  0  0  0  0
   12.3238   -8.2925    7.4870 H   0  0  0  0  0  0
    8.8476   -6.9193    5.3771 H   0  0  0  0  0  0
    5.6228   -2.0358    0.2764 H   0  0  0  0  0  0
    2.2269   -6.0756   -0.9283 H   0  0  0  0  0  0
  1  2  1  0  0  0
  1 41  1  0  0  0
  1 42  1  0  0  0
  1 43  1  0  0  0
  2  3  2  0  0  0
  2  4  2  0  0  0
  2  5  1  0  0  0
  5  6  1  0  0  0
  5 44  1  0  0  0
  5 45  1  0  0  0
  6  7  1  0  0  0
  6 46  1  0  0  0
  6 47  1  0  0  0
  7  8  1  0  0  0
  7 48  1  0  0  0
  7 68  1  0  0  0
  8  9  1  0  0  0
  8 49  1  0  0  0
  8 50  1  0  0  0
  9 13  1  0  0  0
  9 10  2  0  0  0
 10 11  1  0  0  0
 10 51  1  0  0  0
 11 12  2  0  0  0
 11 52  1  0  0  0
 12 13  1  0  0  0
 12 14  1  0  0  0
 14 19  2  0  0  0
 14 15  1  0  0  0
 15 53  1  0  0  0
 15 16  2  0  0  0
 16 54  1  0  0  0
 16 17  1  0  0  0
 17 18  2  0  0  0
 17 23  1  0  0  0
 18 20  1  0  0  0
 18 19  1  0  0  0
 19 55  1  0  0  0
 20 24  2  0  0  0
 20 21  1  0  0  0
 21 22  2  0  0  0
 22 23  1  0  0  0
 22 56  1  0  0  0
 23 57  1  0  0  0
 24 25  1  0  0  0
 24 67  1  0  0  0
 25 30  2  0  0  0
 25 26  1  0  0  0
 26 27  2  0  0  0
 26 58  1  0  0  0
 27 28  1  0  0  0
 27 59  1  0  0  0
 28 29  2  0  0  0
 28 32  1  0  0  0
 29 30  1  0  0  0
 29 31  1  0  0  0
 30 60  1  0  0  0
 32 33  1  0  0  0
 33 34  1  0  0  0
 33 61  1  0  0  0
 33 62  1  0  0  0
 34 39  2  0  0  0
 34 35  1  0  0  0
 35 36  2  0  0  0
 35 63  1  0  0  0
 36 37  1  0  0  0
 36 64  1  0  0  0
 37 38  2  0  0  0
 37 65  1  0  0  0
 38 39  1  0  0  0
 38 40  1  0  0  0
 39 66  1  0  0  0
M  CHG  2   7   1  24   1
M  END
> <s_m_source_file>
/Users/andrea/Development/mcce-charges/epik_inhibitors/output/Lapatinib/Lapatinib-input.mol2

> <i_m_source_file_index>
1

> <r_epik_Ionization_Penalty>
  0.2855

> <r_epik_Ionization_Penalty_Charging>
  0.0372

> <r_epik_Ionization_Penalty_Neutral>
  0.2484

> <r_epik_State_Penalty>
  3.2010

> <i_epik_Tot_Q>
2

> <s_epik_Chemistry_Notes>
This compound has an imine and may undergo hydrolysis.

$$$$
~{N}-[3-chloro-4-[(3-fluorophenyl)methoxy]phenyl]-6-[5-[(2-methylsulfonylethylamino)methyl]-2-furyl]quinazolin-4-amine
                    3D
 Structure written by MMmdl.
 68 72  0  0  1  0            999 V2000
    2.8503  -11.3698   -1.0891 C   0  0  0  0  0  0
    3.2007  -10.0950   -2.2748 S   0  0  0  0  0  0
    2.5506  -10.4556   -3.5196 O   0  0  0  0  0  0
    4.6239   -9.8224   -2.2261 O   0  0  0  0  0  0
    2.3584   -8.6923   -1.6113 C   0  0  0  0  0  0
    2.5222   -7.4583   -2.4777 C   0  0  0  0  0  0
    1.8259   -6.3035   -1.9269 N   0  3  0  0  0  0
    1.9983   -5.1506   -2.7675 C   0  0  0  0  0  0
    1.3040   -3.9709   -2.2320 C   0  0  0  0  0  0
    0.0348   -3.4687   -2.4016 C   0  0  0  0  0  0
   -0.0328   -2.2963   -1.6117 C   0  0  0  0  0  0
    1.1999   -2.1657   -1.0155 C   0  0  0  0  0  0
    2.0206   -3.1825   -1.3885 O   0  0  0  0  0  0
    1.7783   -1.2043   -0.1094 C   0  0  0  0  0  0
    1.0260   -0.1225    0.3346 C   0  0  0  0  0  0
    1.5879    0.8085    1.2133 C   0  0  0  0  0  0
    2.8996    0.6849    1.6651 C   0  0  0  0  0  0
    3.6493   -0.4117    1.2094 C   0  0  0  0  0  0
    3.0914   -1.3522    0.3260 C   0  0  0  0  0  0
    4.9553   -0.5014    1.6826 C   0  0  0  0  0  0
    5.5107    0.3871    2.5281 N   0  0  0  0  0  0
    4.7000    1.3924    2.8955 C   0  0  0  0  0  0
    3.4230    1.5905    2.5099 N   0  0  0  0  0  0
    5.7734   -1.5812    1.2667 N   0  3  0  0  0  0
    5.8110   -2.3415    0.0872 C   0  0  0  0  0  0
    6.2282   -3.6718    0.1280 C   0  0  0  0  0  0
    6.2653   -4.4275   -1.0438 C   0  0  0  0  0  0
    5.8852   -3.8527   -2.2566 C   0  0  0  0  0  0
    5.4679   -2.5224   -2.2975 C   0  0  0  0  0  0
    5.4309   -1.7667   -1.1256 C   0  0  0  0  0  0
    4.9925   -1.7865   -3.7837 Cl  0  0  0  0  0  0
    5.9300   -4.6149   -3.3858 O   0  0  0  0  0  0
    7.1986   -5.1510   -3.7551 C   0  0  0  0  0  0
    7.2495   -5.2884   -5.2463 C   0  0  0  0  0  0
    6.8273   -6.4716   -5.8525 C   0  0  0  0  0  0
    6.8761   -6.5999   -7.2406 C   0  0  0  0  0  0
    7.3470   -5.5451   -8.0225 C   0  0  0  0  0  0
    7.7694   -4.3620   -7.4161 C   0  0  0  0  0  0
    7.7206   -4.2336   -6.0280 C   0  0  0  0  0  0
    8.2218   -3.3487   -8.1664 F   0  0  0  0  0  0
    3.3323  -11.1227   -0.1318 H   0  0  0  0  0  0
    3.2388  -12.3305   -1.4580 H   0  0  0  0  0  0
    1.7626  -11.4459   -0.9432 H   0  0  0  0  0  0
    1.2836   -8.9130   -1.5333 H   0  0  0  0  0  0
    2.7589   -8.4625   -0.6129 H   0  0  0  0  0  0
    3.5899   -7.2067   -2.5595 H   0  0  0  0  0  0
    2.1145   -7.6572   -3.4799 H   0  0  0  0  0  0
    0.7516   -6.5261   -1.8486 H   0  0  0  0  0  0
    3.0691   -4.9122   -2.8478 H   0  0  0  0  0  0
    1.5938   -5.3626   -3.7682 H   0  0  0  0  0  0
   -0.7461   -3.8921   -3.0171 H   0  0  0  0  0  0
   -0.8779   -1.6327   -1.4945 H   0  0  0  0  0  0
    0.0818   -0.0111    0.0247 H   0  0  0  0  0  0
    1.0455    1.5859    1.5318 H   0  0  0  0  0  0
    3.6384   -2.1277    0.0107 H   0  0  0  0  0  0
    5.0308    2.0980    3.5222 H   0  0  0  0  0  0
    2.8140    2.4403    2.8518 H   0  0  0  0  0  0
    6.5253   -4.1298    1.0679 H   0  0  0  0  0  0
    6.5908   -5.4636   -1.0046 H   0  0  0  0  0  0
    5.1052   -0.7289   -1.1525 H   0  0  0  0  0  0
    7.9958   -4.4734   -3.4159 H   0  0  0  0  0  0
    7.3308   -6.1369   -3.2854 H   0  0  0  0  0  0
    6.4584   -7.2988   -5.2519 H   0  0  0  0  0  0
    6.5467   -7.5209   -7.7129 H   0  0  0  0  0  0
    7.3860   -5.6442   -9.1031 H   0  0  0  0  0  0
    8.0519   -3.3081   -5.5646 H   0  0  0  0  0  0
    6.5591   -1.9648    1.9342 H   0  0  0  0  0  0
    2.2269   -6.0756   -0.9283 H   0  0  0  0  0  0
  1  2  1  0  0  0
  1 41  1  0  0  0
  1 42  1  0  0  0
  1 43  1  0  0  0
  2  3  2  0  0  0
  2  4  2  0  0  0
  2  5  1  0  0  0
  5  6  1  0  0  0
  5 44  1  0  0  0
  5 45  1  0  0  0
  6  7  1  0  0  0
  6 46  1  0  0  0
  6 47  1  0  0  0
  7  8  1  0  0  0
  7 48  1  0  0  0
  7 68  1  0  0  0
  8  9  1  0  0  0
  8 49  1  0  0  0
  8 50  1  0  0  0
  9 13  1  0  0  0
  9 10  2  0  0  0
 10 11  1  0  0  0
 10 51  1  0  0  0
 11 12  2  0  0  0
 11 52  1  0  0  0
 12 13  1  0  0  0
 12 14  1  0  0  0
 14 19  2  0  0  0
 14 15  1  0  0  0
 15 53  1  0  0  0
 15 16  2  0  0  0
 16 54  1  0  0  0
 16 17  1  0  0  0
 17 18  2  0  0  0
 17 23  1  0  0  0
 18 20  1  0  0  0
 18 19  1  0  0  0
 19 55  1  0  0  0
 20 24  2  0  0  0
 20 21  1  0  0  0
 21 22  2  0  0  0
 22 23  1  0  0  0
 22 56  1  0  0  0
 23 57  1  0  0  0
 24 25  1  0  0  0
 24 67  1  0  0  0
 25 30  2  0  0  0
 25 26  1  0  0  0
 26 27  2  0  0  0
 26 58  1  0  0  0
 27 28  1  0  0  0
 27 59  1  0  0  0
 28 29  2  0  0  0
 28 32  1  0  0  0
 29 30  1  0  0  0
 29 31  1  0  0  0
 30 60  1  0  0  0
 32 33  1  0  0  0
 33 34  1  0  0  0
 33 61  1  0  0  0
 33 62  1  0  0  0
 34 39  2  0  0  0
 34 35  1  0  0  0
 35 36  2  0  0  0
 35 63  1  0  0  0
 36 37  1  0  0  0
 36 64  1  0  0  0
 37 38  2  0  0  0
 37 65  1  0  0  0
 38 39  1  0  0  0
 38 40  1  0  0  0
 39 66  1  0  0  0
M  CHG  2   7   1  24   1
M  END
> <s_m_source_file>
/Users/andrea/Development/mcce-charges/epik_inhibitors/output/Lapatinib/Lapatinib-input.mol2

> <i_m_source_file_index>
1

> <r_epik_Ionization_Penalty>
  0.2855

> <r_epik_Ionization_Penalty_Charging>
  0.0372

> <r_epik_Ionization_Penalty_Neutral>
  0.2484

> <r_epik_State_Penalty>
  3.2010

> <i_epik_Tot_Q>
2

> <s_epik_Chemistry_Notes>
This compound has an imine and may undergo hydrolysis.

$$$$
~{N}-[3-chloro-4-[(3-fluorophenyl)methoxy]phenyl]-6-[5-[(2-methylsulfonylethylamino)methyl]-2-furyl]quinazolin-4-amine
                    3D
 Structure written by MMmdl.
 68 72  0  0  1  0            999 V2000
    2.8506  -11.3702   -1.0877 C   0  0  0  0  0  0
    3.2008  -10.0955   -2.2736 S   0  0  0  0  0  0
    2.5505  -10.4562   -3.5182 O   0  0  0  0  0  0
    4.6239   -9.8228   -2.2251 O   0  0  0  0  0  0
    2.3585   -8.6927   -1.6101 C   0  0  0  0  0  0
    2.5220   -7.4588   -2.4767 C   0  0  0  0  0  0
    1.8258   -6.3040   -1.9259 N   0  3  0  0  0  0
    1.9979   -5.1512   -2.7666 C   0  0  0  0  0  0
    1.3037   -3.9715   -2.2312 C   0  0  0  0  0  0
    0.0344   -3.4694   -2.4006 C   0  0  0  0  0  0
   -0.0332   -2.2969   -1.6108 C   0  0  0  0  0  0
    1.1996   -2.1662   -1.0148 C   0  0  0  0  0  0
    2.0203   -3.1829   -1.3879 O   0  0  0  0  0  0
    1.7781   -1.2046   -0.1090 C   0  0  0  0  0  0
    1.0259   -0.1228    0.3350 C   0  0  0  0  0  0
    1.5879    0.8085    1.2132 C   0  0  0  0  0  0
    2.8996    0.6850    1.6650 C   0  0  0  0  0  0
    3.6493   -0.4117    1.2094 C   0  0  0  0  0  0
    3.0913   -1.3524    0.3263 C   0  0  0  0  0  0
    4.9553   -0.5013    1.6825 C   0  0  0  0  0  0
    5.5107    0.3871    2.5281 N   0  0  0  0  0  0
    4.7000    1.3925    2.8954 C   0  0  0  0  0  0
    3.4231    1.5906    2.5098 N   0  3  0  0  0  0
    5.7734   -1.5812    1.2667 N   0  0  0  0  0  0
    6.8294   -2.2643    1.8904 C   0  0  0  0  0  0
    7.8468   -2.8277    1.1203 C   0  0  0  0  0  0
    8.8963   -3.5062    1.7398 C   0  0  0  0  0  0
    8.9283   -3.6214    3.1296 C   0  0  0  0  0  0
    7.9109   -3.0580    3.8997 C   0  0  0  0  0  0
    6.8614   -2.3795    3.2801 C   0  0  0  0  0  0
    7.9256   -3.1856    5.6201 Cl  0  0  0  0  0  0
    9.9665   -4.2886    3.7083 O   0  0  0  0  0  0
   10.1403   -5.6563    3.3445 C   0  0  0  0  0  0
   10.7494   -6.3901    4.5002 C   0  0  0  0  0  0
   12.1365   -6.4805    4.6159 C   0  0  0  0  0  0
   12.7035   -7.1648    5.6911 C   0  0  0  0  0  0
   11.8834   -7.7587    6.6505 C   0  0  0  0  0  0
   10.4962   -7.6683    6.5346 C   0  0  0  0  0  0
    9.9292   -6.9840    5.4594 C   0  0  0  0  0  0
    9.7081   -8.2384    7.4556 F   0  0  0  0  0  0
    3.3327  -11.1229   -0.1304 H   0  0  0  0  0  0
    3.2392  -12.3309   -1.4565 H   0  0  0  0  0  0
    1.7630  -11.4463   -0.9416 H   0  0  0  0  0  0
    1.2837   -8.9135   -1.5319 H   0  0  0  0  0  0
    2.7591   -8.4628   -0.6118 H   0  0  0  0  0  0
    3.5897   -7.2072   -2.5587 H   0  0  0  0  0  0
    2.1142   -7.6578   -3.4788 H   0  0  0  0  0  0
    0.7514   -6.5267   -1.8474 H   0  0  0  0  0  0
    3.0687   -4.9127   -2.8471 H   0  0  0  0  0  0
    1.5933   -5.3634   -3.7672 H   0  0  0  0  0  0
   -0.7466   -3.8929   -3.0159 H   0  0  0  0  0  0
   -0.8783   -1.6333   -1.4936 H   0  0  0  0  0  0
   -0.0025    0.0142    0.0088 H   0  0  0  0  0  0
    0.9780    1.6463    1.5460 H   0  0  0  0  0  0
    3.6726   -2.2021   -0.0265 H   0  0  0  0  0  0
    5.1159    2.1256    3.5759 H   0  0  0  0  0  0
    5.6227   -2.0358    0.2764 H   0  0  0  0  0  0
    7.8322   -2.7426    0.0368 H   0  0  0  0  0  0
    9.6860   -3.9421    1.1337 H   0  0  0  0  0  0
    6.0661   -1.9376    3.8768 H   0  0  0  0  0  0
    9.1633   -6.0968    3.0967 H   0  0  0  0  0  0
   10.8044   -5.7216    2.4700 H   0  0  0  0  0  0
   12.7838   -6.0208    3.8738 H   0  0  0  0  0  0
   13.7836   -7.2347    5.7817 H   0  0  0  0  0  0
   12.3237   -8.2922    7.4875 H   0  0  0  0  0  0
    8.8475   -6.9190    5.3775 H   0  0  0  0  0  0
    2.2269   -6.0760   -0.9273 H   0  0  0  0  0  0
    2.8141    2.4405    2.8515 H   0  0  0  0  0  0
  1  2  1  0  0  0
  1 41  1  0  0  0
  1 42  1  0  0  0
  1 43  1  0  0  0
  2  3  2  0  0  0
  2  4  2  0  0  0
  2  5  1  0  0  0
  5  6  1  0  0  0
  5 44  1  0  0  0
  5 45  1  0  0  0
  6  7  1  0  0  0
  6 46  1  0  0  0
  6 47  1  0  0  0
  7  8  1  0  0  0
  7 48  1  0  0  0
  7 67  1  0  0  0
  8  9  1  0  0  0
  8 49  1  0  0  0
  8 50  1  0  0  0
  9 13  1  0  0  0
  9 10  2  0  0  0
 10 11  1  0  0  0
 10 51  1  0  0  0
 11 12  2  0  0  0
 11 52  1  0  0  0
 12 13  1  0  0  0
 12 14  1  0  0  0
 14 19  2  0  0  0
 14 15  1  0  0  0
 15 16  2  0  0  0
 15 53  1  0  0  0
 16 17  1  0  0  0
 16 54  1  0  0  0
 17 23  1  0  0  0
 17 18  2  0  0  0
 18 19  1  0  0  0
 18 20  1  0  0  0
 19 55  1  0  0  0
 20 21  2  0  0  0
 20 24  1  0  0  0
 21 22  1  0  0  0
 22 23  2  0  0  0
 22 56  1  0  0  0
 23 68  1  0  0  0
 24 25  1  0  0  0
 24 57  1  0  0  0
 25 30  2  0  0  0
 25 26  1  0  0  0
 26 27  2  0  0  0
 26 58  1  0  0  0
 27 28  1  0  0  0
 27 59  1  0  0  0
 28 29  2  0  0  0
 28 32  1  0  0  0
 29 30  1  0  0  0
 29 31  1  0  0  0
 30 60  1  0  0  0
 32 33  1  0  0  0
 33 34  1  0  0  0
 33 61  1  0  0  0
 33 62  1  0  0  0
 34 39  2  0  0  0
 34 35  1  0  0  0
 35 36  2  0  0  0
 35 63  1  0  0  0
 36 37  1  0  0  0
 36 64  1  0  0  0
 37 38  2  0  0  0
 37 65  1  0  0  0
 38 39  1  0  0  0
 38 40  1  0  0  0
 39 66  1  0  0  0
M  CHG  2   7   1  23   1
M  END
> <s_m_source_file>
/Users/andrea/Development/mcce-charges/epik_inhibitors/output/Lapatinib/Lapatinib-input.mol2

> <i_m_source_file_index>
1

> <r_epik_Ionization_Penalty>
  4.7736

> <r_epik_Ionization_Penalty_Charging>
  4.7734

> <r_epik_Ionization_Penalty_Neutral>
  0.0002

> <r_epik_State_Penalty>
  3.4014

> <i_epik_Tot_Q>
2

$$$$
~{N}-[3-chloro-4-[(3-fluorophenyl)methoxy]phenyl]-6-[5-[(2-methylsulfonylethylamino)methyl]-2-furyl]quinazolin-4-amine
                    3D
 Structure written by MMmdl.
 67 71  0  0  1  0            999 V2000
    2.8503  -11.3698   -1.0891 C   0  0  0  0  0  0
    3.2007  -10.0950   -2.2748 S   0  0  0  0  0  0
    2.5506  -10.4556   -3.5196 O   0  0  0  0  0  0
    4.6239   -9.8224   -2.2261 O   0  0  0  0  0  0
    2.3584   -8.6923   -1.6113 C   0  0  0  0  0  0
    2.5222   -7.4583   -2.4777 C   0  0  0  0  0  0
    1.8259   -6.3035   -1.9269 N   0  0  0  0  0  0
    1.9983   -5.1506   -2.7675 C   0  0  0  0  0  0
    1.3040   -3.9709   -2.2320 C   0  0  0  0  0  0
    0.0348   -3.4687   -2.4016 C   0  0  0  0  0  0
   -0.0328   -2.2963   -1.6117 C   0  0  0  0  0  0
    1.1999   -2.1657   -1.0155 C   0  0  0  0  0  0
    2.0206   -3.1825   -1.3885 O   0  0  0  0  0  0
    1.7783   -1.2043   -0.1094 C   0  0  0  0  0  0
    1.0260   -0.1225    0.3346 C   0  0  0  0  0  0
    1.5879    0.8085    1.2133 C   0  0  0  0  0  0
    2.8996    0.6849    1.6651 C   0  0  0  0  0  0
    3.6493   -0.4117    1.2094 C   0  0  0  0  0  0
    3.0914   -1.3522    0.3260 C   0  0  0  0  0  0
    4.9553   -0.5014    1.6826 C   0  0  0  0  0  0
    5.5107    0.3871    2.5281 N   0  0  0  0  0  0
    4.7000    1.3924    2.8955 C   0  0  0  0  0  0
    3.4230    1.5905    2.5099 N   0  0  0  0  0  0
    5.7734   -1.5812    1.2667 N   0  3  0  0  0  0
    6.8294   -2.2643    1.8904 C   0  0  0  0  0  0
    7.8468   -2.8276    1.1202 C   0  0  0  0  0  0
    8.8963   -3.5062    1.7397 C   0  0  0  0  0  0
    8.9283   -3.6215    3.1295 C   0  0  0  0  0  0
    7.9109   -3.0582    3.8996 C   0  0  0  0  0  0
    6.8614   -2.3796    3.2801 C   0  0  0  0  0  0
    7.9256   -3.1859    5.6200 Cl  0  0  0  0  0  0
    9.9665   -4.2887    3.7081 O   0  0  0  0  0  0
   10.1404   -5.6564    3.3442 C   0  0  0  0  0  0
   10.7495   -6.3902    4.4999 C   0  0  0  0  0  0
   12.1366   -6.4806    4.6156 C   0  0  0  0  0  0
   12.7036   -7.1650    5.6907 C   0  0  0  0  0  0
   11.8835   -7.7590    6.6501 C   0  0  0  0  0  0
   10.4963   -7.6686    6.5342 C   0  0  0  0  0  0
    9.9293   -6.9842    5.4590 C   0  0  0  0  0  0
    9.7082   -8.2388    7.4551 F   0  0  0  0  0  0
    3.3323  -11.1227   -0.1318 H   0  0  0  0  0  0
    3.2388  -12.3305   -1.4580 H   0  0  0  0  0  0
    1.7626  -11.4459   -0.9432 H   0  0  0  0  0  0
    1.2836   -8.9130   -1.5333 H   0  0  0  0  0  0
    2.7589   -8.4625   -0.6129 H   0  0  0  0  0  0
    3.5899   -7.2067   -2.5595 H   0  0  0  0  0  0
    2.1145   -7.6572   -3.4799 H   0  0  0  0  0  0
    0.7516   -6.5261   -1.8486 H   0  0  0  0  0  0
    3.0691   -4.9122   -2.8478 H   0  0  0  0  0  0
    1.5938   -5.3626   -3.7682 H   0  0  0  0  0  0
   -0.7461   -3.8921   -3.0171 H   0  0  0  0  0  0
   -0.8779   -1.6327   -1.4945 H   0  0  0  0  0  0
    0.0818   -0.0111    0.0247 H   0  0  0  0  0  0
    1.0455    1.5859    1.5318 H   0  0  0  0  0  0
    3.6384   -2.1277    0.0107 H   0  0  0  0  0  0
    5.0308    2.0980    3.5222 H   0  0  0  0  0  0
    2.8140    2.4403    2.8518 H   0  0  0  0  0  0
    7.8322   -2.7424    0.0367 H   0  0  0  0  0  0
    9.6861   -3.9420    1.1335 H   0  0  0  0  0  0
    6.0661   -1.9378    3.8768 H   0  0  0  0  0  0
    9.1634   -6.0968    3.0963 H   0  0  0  0  0  0
   10.8045   -5.7216    2.4697 H   0  0  0  0  0  0
   12.7839   -6.0208    3.8735 H   0  0  0  0  0  0
   13.7837   -7.2349    5.7813 H   0  0  0  0  0  0
   12.3238   -8.2925    7.4870 H   0  0  0  0  0  0
    8.8476   -6.9193    5.3771 H   0  0  0  0  0  0
    5.6228   -2.0358    0.2764 H   0  0  0  0  0  0
  1  2  1  0  0  0
  1 41  1  0  0  0
  1 42  1  0  0  0
  1 43  1  0  0  0
  2  3  2  0  0  0
  2  4  2  0  0  0
  2  5  1  0  0  0
  5  6  1  0  0  0
  5 44  1  0  0  0
  5 45  1  0  0  0
  6  7  1  0  0  0
  6 46  1  0  0  0
  6 47  1  0  0  0
  7  8  1  0  0  0
  7 48  1  0  0  0
  8  9  1  0  0  0
  8 49  1  0  0  0
  8 50  1  0  0  0
  9 13  1  0  0  0
  9 10  2  0  0  0
 10 11  1  0  0  0
 10 51  1  0  0  0
 11 12  2  0  0  0
 11 52  1  0  0  0
 12 13  1  0  0  0
 12 14  1  0  0  0
 14 19  2  0  0  0
 14 15  1  0  0  0
 15 53  1  0  0  0
 15 16  2  0  0  0
 16 54  1  0  0  0
 16 17  1  0  0  0
 17 18  2  0  0  0
 17 23  1  0  0  0
 18 20  1  0  0  0
 18 19  1  0  0  0
 19 55  1  0  0  0
 20 24  2  0  0  0
 20 21  1  0  0  0
 21 22  2  0  0  0
 22 23  1  0  0  0
 22 56  1  0  0  0
 23 57  1  0  0  0
 24 25  1  0  0  0
 24 67  1  0  0  0
 25 30  2  0  0  0
 25 26  1  0  0  0
 26 27  2  0  0  0
 26 58  1  0  0  0
 27 28  1  0  0  0
 27 59  1  0  0  0
 28 29  2  0  0  0
 28 32  1  0  0  0
 29 30  1  0  0  0
 29 31  1  0  0  0
 30 60  1  0  0  0
 32 33  1  0  0  0
 33 34  1  0  0  0
 33 61  1  0  0  0
 33 62  1  0  0  0
 34 39  2  0  0  0
 34 35  1  0  0  0
 35 36  2  0  0  0
 35 63  1  0  0  0
 36 37  1  0  0  0
 36 64  1  0  0  0
 37 38  2  0  0  0
 37 65  1  0  0  0
 38 39  1  0  0  0
 38 40  1  0  0  0
 39 66  1  0  0  0
M  CHG  1  24   1
M  END
> <s_m_source_file>
/Users/andrea/Development/mcce-charges/epik_inhibitors/output/Lapatinib/Lapatinib-input.mol2

> <i_m_source_file_index>
1

> <r_epik_Ionization_Penalty>
  1.9112

> <r_epik_Ionization_Penalty_Charging>
  0.0002

> <r_epik_Ionization_Penalty_Neutral>
  1.9109

> <r_epik_State_Penalty>
  4.9363

> <i_epik_Tot_Q>
1

> <s_epik_Chemistry_Notes>
This compound has an imine and may undergo hydrolysis.

$$$$
~{N}-[3-chloro-4-[(3-fluorophenyl)methoxy]phenyl]-6-[5-[(2-methylsulfonylethylamino)methyl]-2-furyl]quinazolin-4-amine
                    3D
 Structure written by MMmdl.
 67 71  0  0  1  0            999 V2000
    2.8503  -11.3698   -1.0891 C   0  0  0  0  0  0
    3.2007  -10.0950   -2.2748 S   0  0  0  0  0  0
    2.5506  -10.4556   -3.5196 O   0  0  0  0  0  0
    4.6239   -9.8224   -2.2261 O   0  0  0  0  0  0
    2.3584   -8.6923   -1.6113 C   0  0  0  0  0  0
    2.5222   -7.4583   -2.4777 C   0  0  0  0  0  0
    1.8259   -6.3035   -1.9269 N   0  0  0  0  0  0
    1.9983   -5.1506   -2.7675 C   0  0  0  0  0  0
    1.3040   -3.9709   -2.2320 C   0  0  0  0  0  0
    0.0348   -3.4687   -2.4016 C   0  0  0  0  0  0
   -0.0328   -2.2963   -1.6117 C   0  0  0  0  0  0
    1.1999   -2.1657   -1.0155 C   0  0  0  0  0  0
    2.0206   -3.1825   -1.3885 O   0  0  0  0  0  0
    1.7783   -1.2043   -0.1094 C   0  0  0  0  0  0
    1.0260   -0.1225    0.3346 C   0  0  0  0  0  0
    1.5879    0.8085    1.2133 C   0  0  0  0  0  0
    2.8996    0.6849    1.6651 C   0  0  0  0  0  0
    3.6493   -0.4117    1.2094 C   0  0  0  0  0  0
    3.0914   -1.3522    0.3260 C   0  0  0  0  0  0
    4.9553   -0.5014    1.6826 C   0  0  0  0  0  0
    5.5107    0.3871    2.5281 N   0  0  0  0  0  0
    4.7000    1.3924    2.8955 C   0  0  0  0  0  0
    3.4230    1.5905    2.5099 N   0  0  0  0  0  0
    5.7734   -1.5812    1.2667 N   0  3  0  0  0  0
    5.8110   -2.3415    0.0872 C   0  0  0  0  0  0
    6.2282   -3.6718    0.1280 C   0  0  0  0  0  0
    6.2653   -4.4275   -1.0438 C   0  0  0  0  0  0
    5.8852   -3.8527   -2.2566 C   0  0  0  0  0  0
    5.4679   -2.5224   -2.2975 C   0  0  0  0  0  0
    5.4309   -1.7667   -1.1256 C   0  0  0  0  0  0
    4.9925   -1.7865   -3.7837 Cl  0  0  0  0  0  0
    5.9300   -4.6149   -3.3858 O   0  0  0  0  0  0
    7.1986   -5.1510   -3.7551 C   0  0  0  0  0  0
    7.2495   -5.2884   -5.2463 C   0  0  0  0  0  0
    6.8273   -6.4716   -5.8525 C   0  0  0  0  0  0
    6.8761   -6.5999   -7.2406 C   0  0  0  0  0  0
    7.3470   -5.5451   -8.0225 C   0  0  0  0  0  0
    7.7694   -4.3620   -7.4161 C   0  0  0  0  0  0
    7.7206   -4.2336   -6.0280 C   0  0  0  0  0  0
    8.2218   -3.3487   -8.1664 F   0  0  0  0  0  0
    3.3323  -11.1227   -0.1318 H   0  0  0  0  0  0
    3.2388  -12.3305   -1.4580 H   0  0  0  0  0  0
    1.7626  -11.4459   -0.9432 H   0  0  0  0  0  0
    1.2836   -8.9130   -1.5333 H   0  0  0  0  0  0
    2.7589   -8.4625   -0.6129 H   0  0  0  0  0  0
    3.5899   -7.2067   -2.5595 H   0  0  0  0  0  0
    2.1145   -7.6572   -3.4799 H   0  0  0  0  0  0
    0.7516   -6.5261   -1.8486 H   0  0  0  0  0  0
    3.0691   -4.9122   -2.8478 H   0  0  0  0  0  0
    1.5938   -5.3626   -3.7682 H   0  0  0  0  0  0
   -0.7461   -3.8921   -3.0171 H   0  0  0  0  0  0
   -0.8779   -1.6327   -1.4945 H   0  0  0  0  0  0
    0.0818   -0.0111    0.0247 H   0  0  0  0  0  0
    1.0455    1.5859    1.5318 H   0  0  0  0  0  0
    3.6384   -2.1277    0.0107 H   0  0  0  0  0  0
    5.0308    2.0980    3.5222 H   0  0  0  0  0  0
    2.8140    2.4403    2.8518 H   0  0  0  0  0  0
    6.5253   -4.1298    1.0679 H   0  0  0  0  0  0
    6.5908   -5.4636   -1.0046 H   0  0  0  0  0  0
    5.1052   -0.7289   -1.1525 H   0  0  0  0  0  0
    7.9958   -4.4734   -3.4159 H   0  0  0  0  0  0
    7.3308   -6.1369   -3.2854 H   0  0  0  0  0  0
    6.4584   -7.2988   -5.2519 H   0  0  0  0  0  0
    6.5467   -7.5209   -7.7129 H   0  0  0  0  0  0
    7.3860   -5.6442   -9.1031 H   0  0  0  0  0  0
    8.0519   -3.3081   -5.5646 H   0  0  0  0  0  0
    6.5591   -1.9648    1.9342 H   0  0  0  0  0  0
  1  2  1  0  0  0
  1 41  1  0  0  0
  1 42  1  0  0  0
  1 43  1  0  0  0
  2  3  2  0  0  0
  2  4  2  0  0  0
  2  5  1  0  0  0
  5  6  1  0  0  0
  5 44  1  0  0  0
  5 45  1  0  0  0
  6  7  1  0  0  0
  6 46  1  0  0  0
  6 47  1  0  0  0
  7  8  1  0  0  0
  7 48  1  0  0  0
  8  9  1  0  0  0
  8 49  1  0  0  0
  8 50  1  0  0  0
  9 13  1  0  0  0
  9 10  2  0  0  0
 10 11  1  0  0  0
 10 51  1  0  0  0
 11 12  2  0  0  0
 11 52  1  0  0  0
 12 13  1  0  0  0
 12 14  1  0  0  0
 14 19  2  0  0  0
 14 15  1  0  0  0
 15 53  1  0  0  0
 15 16  2  0  0  0
 16 54  1  0  0  0
 16 17  1  0  0  0
 17 18  2  0  0  0
 17 23  1  0  0  0
 18 20  1  0  0  0
 18 19  1  0  0  0
 19 55  1  0  0  0
 20 24  2  0  0  0
 20 21  1  0  0  0
 21 22  2  0  0  0
 22 23  1  0  0  0
 22 56  1  0  0  0
 23 57  1  0  0  0
 24 25  1  0  0  0
 24 67  1  0  0  0
 25 30  2  0  0  0
 25 26  1  0  0  0
 26 27  2  0  0  0
 26 58  1  0  0  0
 27 28  1  0  0  0
 27 59  1  0  0  0
 28 29  2  0  0  0
 28 32  1  0  0  0
 29 30  1  0  0  0
 29 31  1  0  0  0
 30 60  1  0  0  0
 32 33  1  0  0  0
 33 34  1  0  0  0
 33 61  1  0  0  0
 33 62  1  0  0  0
 34 39  2  0  0  0
 34 35  1  0  0  0
 35 36  2  0  0  0
 35 63  1  0  0  0
 36 37  1  0  0  0
 36 64  1  0  0  0
 37 38  2  0  0  0
 37 65  1  0  0  0
 38 39  1  0  0  0
 38 40  1  0  0  0
 39 66  1  0  0  0
M  CHG  1  24   1
M  END
> <s_m_source_file>
/Users/andrea/Development/mcce-charges/epik_inhibitors/output/Lapatinib/Lapatinib-input.mol2

> <i_m_source_file_index>
1

> <r_epik_Ionization_Penalty>
  1.9112

> <r_epik_Ionization_Penalty_Charging>
  0.0002

> <r_epik_Ionization_Penalty_Neutral>
  1.9109

> <r_epik_State_Penalty>
  4.9363

> <i_epik_Tot_Q>
1

> <s_epik_Chemistry_Notes>
This compound has an imine and may undergo hydrolysis.

$$$$
~{N}-[3-chloro-4-[(3-fluorophenyl)methoxy]phenyl]-6-[5-[(2-methylsulfonylethylamino)methyl]-2-furyl]quinazolin-4-amine
                    3D
 Structure written by MMmdl.
 66 70  0  0  1  0            999 V2000
    2.8506  -11.3702   -1.0877 C   0  0  0  0  0  0
    3.2008  -10.0955   -2.2736 S   0  0  0  0  0  0
    2.5505  -10.4562   -3.5182 O   0  0  0  0  0  0
    4.6239   -9.8228   -2.2251 O   0  0  0  0  0  0
    2.3585   -8.6927   -1.6101 C   0  0  0  0  0  0
    2.5220   -7.4588   -2.4767 C   0  0  0  0  0  0
    1.8258   -6.3040   -1.9259 N   0  3  0  0  0  0
    1.9979   -5.1512   -2.7666 C   0  0  0  0  0  0
    1.3037   -3.9715   -2.2312 C   0  0  0  0  0  0
    0.0344   -3.4694   -2.4006 C   0  0  0  0  0  0
   -0.0332   -2.2969   -1.6108 C   0  0  0  0  0  0
    1.1996   -2.1662   -1.0148 C   0  0  0  0  0  0
    2.0203   -3.1829   -1.3879 O   0  0  0  0  0  0
    1.7781   -1.2046   -0.1090 C   0  0  0  0  0  0
    1.0259   -0.1228    0.3350 C   0  0  0  0  0  0
    1.5879    0.8085    1.2132 C   0  0  0  0  0  0
    2.8996    0.6850    1.6650 C   0  0  0  0  0  0
    3.6493   -0.4117    1.2094 C   0  0  0  0  0  0
    3.0913   -1.3524    0.3263 C   0  0  0  0  0  0
    4.9553   -0.5013    1.6825 C   0  0  0  0  0  0
    5.5107    0.3871    2.5281 N   0  0  0  0  0  0
    4.7000    1.3925    2.8954 C   0  0  0  0  0  0
    3.4231    1.5906    2.5098 N   0  0  0  0  0  0
    5.7734   -1.5812    1.2667 N   0  5  0  0  0  0
    6.8294   -2.2643    1.8904 C   0  0  0  0  0  0
    7.8468   -2.8277    1.1203 C   0  0  0  0  0  0
    8.8963   -3.5062    1.7398 C   0  0  0  0  0  0
    8.9283   -3.6214    3.1296 C   0  0  0  0  0  0
    7.9109   -3.0580    3.8997 C   0  0  0  0  0  0
    6.8614   -2.3795    3.2801 C   0  0  0  0  0  0
    7.9256   -3.1856    5.6201 Cl  0  0  0  0  0  0
    9.9665   -4.2886    3.7083 O   0  0  0  0  0  0
   10.1403   -5.6563    3.3445 C   0  0  0  0  0  0
   10.7494   -6.3901    4.5002 C   0  0  0  0  0  0
   12.1365   -6.4805    4.6159 C   0  0  0  0  0  0
   12.7035   -7.1648    5.6911 C   0  0  0  0  0  0
   11.8834   -7.7587    6.6505 C   0  0  0  0  0  0
   10.4962   -7.6683    6.5346 C   0  0  0  0  0  0
    9.9292   -6.9840    5.4594 C   0  0  0  0  0  0
    9.7081   -8.2384    7.4556 F   0  0  0  0  0  0
    3.3327  -11.1229   -0.1304 H   0  0  0  0  0  0
    3.2392  -12.3309   -1.4565 H   0  0  0  0  0  0
    1.7630  -11.4463   -0.9416 H   0  0  0  0  0  0
    1.2837   -8.9135   -1.5319 H   0  0  0  0  0  0
    2.7591   -8.4628   -0.6118 H   0  0  0  0  0  0
    3.5897   -7.2072   -2.5587 H   0  0  0  0  0  0
    2.1142   -7.6578   -3.4788 H   0  0  0  0  0  0
    0.7514   -6.5267   -1.8474 H   0  0  0  0  0  0
    3.0687   -4.9127   -2.8471 H   0  0  0  0  0  0
    1.5933   -5.3634   -3.7672 H   0  0  0  0  0  0
   -0.7466   -3.8929   -3.0159 H   0  0  0  0  0  0
   -0.8783   -1.6333   -1.4936 H   0  0  0  0  0  0
   -0.0025    0.0142    0.0088 H   0  0  0  0  0  0
    0.9780    1.6463    1.5460 H   0  0  0  0  0  0
    3.6726   -2.2021   -0.0265 H   0  0  0  0  0  0
    5.1159    2.1256    3.5759 H   0  0  0  0  0  0
    7.8322   -2.7426    0.0368 H   0  0  0  0  0  0
    9.6860   -3.9421    1.1337 H   0  0  0  0  0  0
    6.0661   -1.9376    3.8768 H   0  0  0  0  0  0
    9.1633   -6.0968    3.0967 H   0  0  0  0  0  0
   10.8044   -5.7216    2.4700 H   0  0  0  0  0  0
   12.7838   -6.0208    3.8738 H   0  0  0  0  0  0
   13.7836   -7.2347    5.7817 H   0  0  0  0  0  0
   12.3237   -8.2922    7.4875 H   0  0  0  0  0  0
    8.8475   -6.9190    5.3775 H   0  0  0  0  0  0
    2.2269   -6.0760   -0.9273 H   0  0  0  0  0  0
  1  2  1  0  0  0
  1 41  1  0  0  0
  1 42  1  0  0  0
  1 43  1  0  0  0
  2  3  2  0  0  0
  2  4  2  0  0  0
  2  5  1  0  0  0
  5  6  1  0  0  0
  5 44  1  0  0  0
  5 45  1  0  0  0
  6  7  1  0  0  0
  6 46  1  0  0  0
  6 47  1  0  0  0
  7  8  1  0  0  0
  7 48  1  0  0  0
  7 66  1  0  0  0
  8  9  1  0  0  0
  8 49  1  0  0  0
  8 50  1  0  0  0
  9 13  1  0  0  0
  9 10  2  0  0  0
 10 11  1  0  0  0
 10 51  1  0  0  0
 11 12  2  0  0  0
 11 52  1  0  0  0
 12 13  1  0  0  0
 12 14  1  0  0  0
 14 19  2  0  0  0
 14 15  1  0  0  0
 15 16  2  0  0  0
 15 53  1  0  0  0
 16 17  1  0  0  0
 16 54  1  0  0  0
 17 23  1  0  0  0
 17 18  2  0  0  0
 18 19  1  0  0  0
 18 20  1  0  0  0
 19 55  1  0  0  0
 20 21  2  0  0  0
 20 24  1  0  0  0
 21 22  1  0  0  0
 22 23  2  0  0  0
 22 56  1  0  0  0
 24 25  1  0  0  0
 25 30  2  0  0  0
 25 26  1  0  0  0
 26 27  2  0  0  0
 26 57  1  0  0  0
 27 28  1  0  0  0
 27 58  1  0  0  0
 28 29  2  0  0  0
 28 32  1  0  0  0
 29 30  1  0  0  0
 29 31  1  0  0  0
 30 59  1  0  0  0
 32 33  1  0  0  0
 33 34  1  0  0  0
 33 60  1  0  0  0
 33 61  1  0  0  0
 34 39  2  0  0  0
 34 35  1  0  0  0
 35 36  2  0  0  0
 35 62  1  0  0  0
 36 37  1  0  0  0
 36 63  1  0  0  0
 37 38  2  0  0  0
 37 64  1  0  0  0
 38 39  1  0  0  0
 38 40  1  0  0  0
 39 65  1  0  0  0
M  CHG  2   7   1  24  -1
M  END
> <s_m_source_file>
/Users/andrea/Development/mcce-charges/epik_inhibitors/output/Lapatinib/Lapatinib-input.mol2

> <i_m_source_file_index>
1

> <r_epik_Ionization_Penalty>
  7.9350

> <r_epik_Ionization_Penalty_Charging>
  7.9314

> <r_epik_Ionization_Penalty_Neutral>
  0.0037

> <r_epik_State_Penalty>
  5.0576

> <i_epik_Tot_Q>
0

$$$$
~{N}-[3-chloro-4-[(3-fluorophenyl)methoxy]phenyl]-6-[5-[(2-methylsulfonylethylamino)methyl]-2-furyl]quinazolin-4-amine
                    3D
 Structure written by MMmdl.
 67 71  0  0  1  0            999 V2000
    2.8506  -11.3702   -1.0877 C   0  0  0  0  0  0
    3.2008  -10.0955   -2.2736 S   0  0  0  0  0  0
    2.5505  -10.4562   -3.5182 O   0  0  0  0  0  0
    4.6239   -9.8228   -2.2251 O   0  0  0  0  0  0
    2.3585   -8.6927   -1.6101 C   0  0  0  0  0  0
    2.5220   -7.4588   -2.4767 C   0  0  0  0  0  0
    1.8258   -6.3040   -1.9259 N   0  0  0  0  0  0
    1.9979   -5.1512   -2.7666 C   0  0  0  0  0  0
    1.3037   -3.9715   -2.2312 C   0  0  0  0  0  0
    0.0344   -3.4694   -2.4006 C   0  0  0  0  0  0
   -0.0332   -2.2969   -1.6108 C   0  0  0  0  0  0
    1.1996   -2.1662   -1.0148 C   0  0  0  0  0  0
    2.0203   -3.1829   -1.3879 O   0  0  0  0  0  0
    1.7781   -1.2046   -0.1090 C   0  0  0  0  0  0
    1.0259   -0.1228    0.3350 C   0  0  0  0  0  0
    1.5879    0.8085    1.2132 C   0  0  0  0  0  0
    2.8996    0.6850    1.6650 C   0  0  0  0  0  0
    3.6493   -0.4117    1.2094 C   0  0  0  0  0  0
    3.0913   -1.3524    0.3263 C   0  0  0  0  0  0
    4.9553   -0.5013    1.6825 C   0  0  0  0  0  0
    5.5107    0.3871    2.5281 N   0  0  0  0  0  0
    4.7000    1.3925    2.8954 C   0  0  0  0  0  0
    3.4231    1.5906    2.5098 N   0  3  0  0  0  0
    5.7734   -1.5812    1.2667 N   0  0  0  0  0  0
    6.8294   -2.2643    1.8904 C   0  0  0  0  0  0
    7.8468   -2.8277    1.1203 C   0  0  0  0  0  0
    8.8963   -3.5062    1.7398 C   0  0  0  0  0  0
    8.9283   -3.6214    3.1296 C   0  0  0  0  0  0
    7.9109   -3.0580    3.8997 C   0  0  0  0  0  0
    6.8614   -2.3795    3.2801 C   0  0  0  0  0  0
    7.9256   -3.1856    5.6201 Cl  0  0  0  0  0  0
    9.9665   -4.2886    3.7083 O   0  0  0  0  0  0
   10.1403   -5.6563    3.3445 C   0  0  0  0  0  0
   10.7494   -6.3901    4.5002 C   0  0  0  0  0  0
   12.1365   -6.4805    4.6159 C   0  0  0  0  0  0
   12.7035   -7.1648    5.6911 C   0  0  0  0  0  0
   11.8834   -7.7587    6.6505 C   0  0  0  0  0  0
   10.4962   -7.6683    6.5346 C   0  0  0  0  0  0
    9.9292   -6.9840    5.4594 C   0  0  0  0  0  0
    9.7081   -8.2384    7.4556 F   0  0  0  0  0  0
    3.3327  -11.1229   -0.1304 H   0  0  0  0  0  0
    3.2392  -12.3309   -1.4565 H   0  0  0  0  0  0
    1.7630  -11.4463   -0.9416 H   0  0  0  0  0  0
    1.2837   -8.9135   -1.5319 H   0  0  0  0  0  0
    2.7591   -8.4628   -0.6118 H   0  0  0  0  0  0
    3.5897   -7.2072   -2.5587 H   0  0  0  0  0  0
    2.1142   -7.6578   -3.4788 H   0  0  0  0  0  0
    0.7514   -6.5267   -1.8474 H   0  0  0  0  0  0
    3.0687   -4.9127   -2.8471 H   0  0  0  0  0  0
    1.5933   -5.3634   -3.7672 H   0  0  0  0  0  0
   -0.7466   -3.8929   -3.0159 H   0  0  0  0  0  0
   -0.8783   -1.6333   -1.4936 H   0  0  0  0  0  0
   -0.0025    0.0142    0.0088 H   0  0  0  0  0  0
    0.9780    1.6463    1.5460 H   0  0  0  0  0  0
    3.6726   -2.2021   -0.0265 H   0  0  0  0  0  0
    5.1159    2.1256    3.5759 H   0  0  0  0  0  0
    5.6227   -2.0358    0.2764 H   0  0  0  0  0  0
    7.8322   -2.7426    0.0368 H   0  0  0  0  0  0
    9.6860   -3.9421    1.1337 H   0  0  0  0  0  0
    6.0661   -1.9376    3.8768 H   0  0  0  0  0  0
    9.1633   -6.0968    3.0967 H   0  0  0  0  0  0
   10.8044   -5.7216    2.4700 H   0  0  0  0  0  0
   12.7838   -6.0208    3.8738 H   0  0  0  0  0  0
   13.7836   -7.2347    5.7817 H   0  0  0  0  0  0
   12.3237   -8.2922    7.4875 H   0  0  0  0  0  0
    8.8475   -6.9190    5.3775 H   0  0  0  0  0  0
    2.8141    2.4405    2.8515 H   0  0  0  0  0  0
  1  2  1  0  0  0
  1 41  1  0  0  0
  1 42  1  0  0  0
  1 43  1  0  0  0
  2  3  2  0  0  0
  2  4  2  0  0  0
  2  5  1  0  0  0
  5  6  1  0  0  0
  5 44  1  0  0  0
  5 45  1  0  0  0
  6  7  1  0  0  0
  6 46  1  0  0  0
  6 47  1  0  0  0
  7  8  1  0  0  0
  7 48  1  0  0  0
  8  9  1  0  0  0
  8 49  1  0  0  0
  8 50  1  0  0  0
  9 13  1  0  0  0
  9 10  2  0  0  0
 10 11  1  0  0  0
 10 51  1  0  0  0
 11 12  2  0  0  0
 11 52  1  0  0  0
 12 13  1  0  0  0
 12 14  1  0  0  0
 14 19  2  0  0  0
 14 15  1  0  0  0
 15 16  2  0  0  0
 15 53  1  0  0  0
 16 17  1  0  0  0
 16 54  1  0  0  0
 17 23  1  0  0  0
 17 18  2  0  0  0
 18 19  1  0  0  0
 18 20  1  0  0  0
 19 55  1  0  0  0
 20 21  2  0  0  0
 20 24  1  0  0  0
 21 22  1  0  0  0
 22 23  2  0  0  0
 22 56  1  0  0  0
 23 67  1  0  0  0
 24 25  1  0  0  0
 24 57  1  0  0  0
 25 30  2  0  0  0
 25 26  1  0  0  0
 26 27  2  0  0  0
 26 58  1  0  0  0
 27 28  1  0  0  0
 27 59  1  0  0  0
 28 29  2  0  0  0
 28 32  1  0  0  0
 29 30  1  0  0  0
 29 31  1  0  0  0
 30 60  1  0  0  0
 32 33  1  0  0  0
 33 34  1  0  0  0
 33 61  1  0  0  0
 33 62  1  0  0  0
 34 39  2  0  0  0
 34 35  1  0  0  0
 35 36  2  0  0  0
 35 63  1  0  0  0
 36 37  1  0  0  0
 36 64  1  0  0  0
 37 38  2  0  0  0
 37 65  1  0  0  0
 38 39  1  0  0  0
 38 40  1  0  0  0
 39 66  1  0  0  0
M  CHG  1  23   1
M  END
> <s_m_source_file>
/Users/andrea/Development/mcce-charges/epik_inhibitors/output/Lapatinib/Lapatinib-input.mol2

> <i_m_source_file_index>
1

> <r_epik_Ionization_Penalty>
  6.3992

> <r_epik_Ionization_Penalty_Charging>
  4.7365

> <r_epik_Ionization_Penalty_Neutral>
  1.6627

> <r_epik_State_Penalty>
  5.1357

> <i_epik_Tot_Q>
1

$$$$
~{N}-[3-chloro-4-[(3-fluorophenyl)methoxy]phenyl]-6-[5-[(2-methylsulfonylethylamino)methyl]-2-furyl]quinazolin-4-amine
                    3D
 Structure written by MMmdl.
 68 72  0  0  1  0            999 V2000
    2.8506  -11.3702   -1.0877 C   0  0  0  0  0  0
    3.2008  -10.0955   -2.2736 S   0  0  0  0  0  0
    2.5505  -10.4562   -3.5182 O   0  0  0  0  0  0
    4.6239   -9.8228   -2.2251 O   0  0  0  0  0  0
    2.3585   -8.6927   -1.6101 C   0  0  0  0  0  0
    2.5220   -7.4588   -2.4767 C   0  0  0  0  0  0
    1.8258   -6.3040   -1.9259 N   0  3  0  0  0  0
    1.9979   -5.1512   -2.7666 C   0  0  0  0  0  0
    1.3037   -3.9715   -2.2312 C   0  0  0  0  0  0
    0.0344   -3.4694   -2.4006 C   0  0  0  0  0  0
   -0.0332   -2.2969   -1.6108 C   0  0  0  0  0  0
    1.1996   -2.1662   -1.0148 C   0  0  0  0  0  0
    2.0203   -3.1829   -1.3879 O   0  0  0  0  0  0
    1.7781   -1.2046   -0.1090 C   0  0  0  0  0  0
    1.0259   -0.1228    0.3350 C   0  0  0  0  0  0
    1.5879    0.8085    1.2132 C   0  0  0  0  0  0
    2.8996    0.6850    1.6650 C   0  0  0  0  0  0
    3.6493   -0.4117    1.2094 C   0  0  0  0  0  0
    3.0913   -1.3524    0.3263 C   0  0  0  0  0  0
    4.9553   -0.5013    1.6825 C   0  0  0  0  0  0
    5.5107    0.3871    2.5281 N   0  3  0  0  0  0
    4.7000    1.3925    2.8954 C   0  0  0  0  0  0
    3.4231    1.5906    2.5098 N   0  0  0  0  0  0
    5.7734   -1.5812    1.2667 N   0  0  0  0  0  0
    6.8294   -2.2643    1.8904 C   0  0  0  0  0  0
    7.8468   -2.8277    1.1203 C   0  0  0  0  0  0
    8.8963   -3.5062    1.7398 C   0  0  0  0  0  0
    8.9283   -3.6214    3.1296 C   0  0  0  0  0  0
    7.9109   -3.0580    3.8997 C   0  0  0  0  0  0
    6.8614   -2.3795    3.2801 C   0  0  0  0  0  0
    7.9256   -3.1856    5.6201 Cl  0  0  0  0  0  0
    9.9665   -4.2886    3.7083 O   0  0  0  0  0  0
   10.1403   -5.6563    3.3445 C   0  0  0  0  0  0
   10.7494   -6.3901    4.5002 C   0  0  0  0  0  0
   12.1365   -6.4805    4.6159 C   0  0  0  0  0  0
   12.7035   -7.1648    5.6911 C   0  0  0  0  0  0
   11.8834   -7.7587    6.6505 C   0  0  0  0  0  0
   10.4962   -7.6683    6.5346 C   0  0  0  0  0  0
    9.9292   -6.9840    5.4594 C   0  0  0  0  0  0
    9.7081   -8.2384    7.4556 F   0  0  0  0  0  0
    3.3327  -11.1229   -0.1304 H   0  0  0  0  0  0
    3.2392  -12.3309   -1.4565 H   0  0  0  0  0  0
    1.7630  -11.4463   -0.9416 H   0  0  0  0  0  0
    1.2837   -8.9135   -1.5319 H   0  0  0  0  0  0
    2.7591   -8.4628   -0.6118 H   0  0  0  0  0  0
    3.5897   -7.2072   -2.5587 H   0  0  0  0  0  0
    2.1142   -7.6578   -3.4788 H   0  0  0  0  0  0
    0.7514   -6.5267   -1.8474 H   0  0  0  0  0  0
    3.0687   -4.9127   -2.8471 H   0  0  0  0  0  0
    1.5933   -5.3634   -3.7672 H   0  0  0  0  0  0
   -0.7466   -3.8929   -3.0159 H   0  0  0  0  0  0
   -0.8783   -1.6333   -1.4936 H   0  0  0  0  0  0
   -0.0025    0.0142    0.0088 H   0  0  0  0  0  0
    0.9780    1.6463    1.5460 H   0  0  0  0  0  0
    3.6726   -2.2021   -0.0265 H   0  0  0  0  0  0
    5.1159    2.1256    3.5759 H   0  0  0  0  0  0
    5.6227   -2.0358    0.2764 H   0  0  0  0  0  0
    7.8322   -2.7426    0.0368 H   0  0  0  0  0  0
    9.6860   -3.9421    1.1337 H   0  0  0  0  0  0
    6.0661   -1.9376    3.8768 H   0  0  0  0  0  0
    9.1633   -6.0968    3.0967 H   0  0  0  0  0  0
   10.8044   -5.7216    2.4700 H   0  0  0  0  0  0
   12.7838   -6.0208    3.8738 H   0  0  0  0  0  0
   13.7836   -7.2347    5.7817 H   0  0  0  0  0  0
   12.3237   -8.2922    7.4875 H   0  0  0  0  0  0
    8.8475   -6.9190    5.3775 H   0  0  0  0  0  0
    2.2269   -6.0760   -0.9273 H   0  0  0  0  0  0
    6.5505    0.2535    2.8612 H   0  0  0  0  0  0
  1  2  1  0  0  0
  1 41  1  0  0  0
  1 42  1  0  0  0
  1 43  1  0  0  0
  2  3  2  0  0  0
  2  4  2  0  0  0
  2  5  1  0  0  0
  5  6  1  0  0  0
  5 44  1  0  0  0
  5 45  1  0  0  0
  6  7  1  0  0  0
  6 46  1  0  0  0
  6 47  1  0  0  0
  7  8  1  0  0  0
  7 48  1  0  0  0
  7 67  1  0  0  0
  8  9  1  0  0  0
  8 49  1  0  0  0
  8 50  1  0  0  0
  9 13  1  0  0  0
  9 10  2  0  0  0
 10 11  1  0  0  0
 10 51  1  0  0  0
 11 12  2  0  0  0
 11 52  1  0  0  0
 12 13  1  0  0  0
 12 14  1  0  0  0
 14 19  2  0  0  0
 14 15  1  0  0  0
 15 16  2  0  0  0
 15 53  1  0  0  0
 16 17  1  0  0  0
 16 54  1  0  0  0
 17 23  1  0  0  0
 17 18  2  0  0  0
 18 19  1  0  0  0
 18 20  1  0  0  0
 19 55  1  0  0  0
 20 21  2  0  0  0
 20 24  1  0  0  0
 21 22  1  0  0  0
 21 68  1  0  0  0
 22 23  2  0  0  0
 22 56  1  0  0  0
 24 25  1  0  0  0
 24 57  1  0  0  0
 25 30  2  0  0  0
 25 26  1  0  0  0
 26 27  2  0  0  0
 26 58  1  0  0  0
 27 28  1  0  0  0
 27 59  1  0  0  0
 28 29  2  0  0  0
 28 32  1  0  0  0
 29 30  1  0  0  0
 29 31  1  0  0  0
 30 60  1  0  0  0
 32 33  1  0  0  0
 33 34  1  0  0  0
 33 61  1  0  0  0
 33 62  1  0  0  0
 34 39  2  0  0  0
 34 35  1  0  0  0
 35 36  2  0  0  0
 35 63  1  0  0  0
 36 37  1  0  0  0
 36 64  1  0  0  0
 37 38  2  0  0  0
 37 65  1  0  0  0
 38 39  1  0  0  0
 38 40  1  0  0  0
 39 66  1  0  0  0
M  CHG  2   7   1  21   1
M  END
> <s_m_source_file>
/Users/andrea/Development/mcce-charges/epik_inhibitors/output/Lapatinib/Lapatinib-input.mol2

> <i_m_source_file_index>
1

> <r_epik_Ionization_Penalty>
  6.7680

> <r_epik_Ionization_Penalty_Charging>
  6.7456

> <r_epik_Ionization_Penalty_Neutral>
  0.0224

> <r_epik_State_Penalty>
  5.4334

> <i_epik_Tot_Q>
2

$$$$
~{N}-[3-chloro-4-[(3-fluorophenyl)methoxy]phenyl]-6-[5-[(2-methylsulfonylethylamino)methyl]-2-furyl]quinazolin-4-amine
                    3D
 Structure written by MMmdl.
 65 69  0  0  1  0            999 V2000
    2.8506  -11.3702   -1.0877 C   0  0  0  0  0  0
    3.2008  -10.0955   -2.2736 S   0  0  0  0  0  0
    2.5505  -10.4562   -3.5182 O   0  0  0  0  0  0
    4.6239   -9.8228   -2.2251 O   0  0  0  0  0  0
    2.3585   -8.6927   -1.6101 C   0  0  0  0  0  0
    2.5220   -7.4588   -2.4767 C   0  0  0  0  0  0
    1.8258   -6.3040   -1.9259 N   0  0  0  0  0  0
    1.9979   -5.1512   -2.7666 C   0  0  0  0  0  0
    1.3037   -3.9715   -2.2312 C   0  0  0  0  0  0
    0.0344   -3.4694   -2.4006 C   0  0  0  0  0  0
   -0.0332   -2.2969   -1.6108 C   0  0  0  0  0  0
    1.1996   -2.1662   -1.0148 C   0  0  0  0  0  0
    2.0203   -3.1829   -1.3879 O   0  0  0  0  0  0
    1.7781   -1.2046   -0.1090 C   0  0  0  0  0  0
    1.0259   -0.1228    0.3350 C   0  0  0  0  0  0
    1.5879    0.8085    1.2132 C   0  0  0  0  0  0
    2.8996    0.6850    1.6650 C   0  0  0  0  0  0
    3.6493   -0.4117    1.2094 C   0  0  0  0  0  0
    3.0913   -1.3524    0.3263 C   0  0  0  0  0  0
    4.9553   -0.5013    1.6825 C   0  0  0  0  0  0
    5.5107    0.3871    2.5281 N   0  0  0  0  0  0
    4.7000    1.3925    2.8954 C   0  0  0  0  0  0
    3.4231    1.5906    2.5098 N   0  0  0  0  0  0
    5.7734   -1.5812    1.2667 N   0  5  0  0  0  0
    6.8294   -2.2643    1.8904 C   0  0  0  0  0  0
    7.8468   -2.8277    1.1203 C   0  0  0  0  0  0
    8.8963   -3.5062    1.7398 C   0  0  0  0  0  0
    8.9283   -3.6214    3.1296 C   0  0  0  0  0  0
    7.9109   -3.0580    3.8997 C   0  0  0  0  0  0
    6.8614   -2.3795    3.2801 C   0  0  0  0  0  0
    7.9256   -3.1856    5.6201 Cl  0  0  0  0  0  0
    9.9665   -4.2886    3.7083 O   0  0  0  0  0  0
   10.1403   -5.6563    3.3445 C   0  0  0  0  0  0
   10.7494   -6.3901    4.5002 C   0  0  0  0  0  0
   12.1365   -6.4805    4.6159 C   0  0  0  0  0  0
   12.7035   -7.1648    5.6911 C   0  0  0  0  0  0
   11.8834   -7.7587    6.6505 C   0  0  0  0  0  0
   10.4962   -7.6683    6.5346 C   0  0  0  0  0  0
    9.9292   -6.9840    5.4594 C   0  0  0  0  0  0
    9.7081   -8.2384    7.4556 F   0  0  0  0  0  0
    3.3327  -11.1229   -0.1304 H   0  0  0  0  0  0
    3.2392  -12.3309   -1.4565 H   0  0  0  0  0  0
    1.7630  -11.4463   -0.9416 H   0  0  0  0  0  0
    1.2837   -8.9135   -1.5319 H   0  0  0  0  0  0
    2.7591   -8.4628   -0.6118 H   0  0  0  0  0  0
    3.5897   -7.2072   -2.5587 H   0  0  0  0  0  0
    2.1142   -7.6578   -3.4788 H   0  0  0  0  0  0
    0.7514   -6.5267   -1.8474 H   0  0  0  0  0  0
    3.0687   -4.9127   -2.8471 H   0  0  0  0  0  0
    1.5933   -5.3634   -3.7672 H   0  0  0  0  0  0
   -0.7466   -3.8929   -3.0159 H   0  0  0  0  0  0
   -0.8783   -1.6333   -1.4936 H   0  0  0  0  0  0
   -0.0025    0.0142    0.0088 H   0  0  0  0  0  0
    0.9780    1.6463    1.5460 H   0  0  0  0  0  0
    3.6726   -2.2021   -0.0265 H   0  0  0  0  0  0
    5.1159    2.1256    3.5759 H   0  0  0  0  0  0
    7.8322   -2.7426    0.0368 H   0  0  0  0  0  0
    9.6860   -3.9421    1.1337 H   0  0  0  0  0  0
    6.0661   -1.9376    3.8768 H   0  0  0  0  0  0
    9.1633   -6.0968    3.0967 H   0  0  0  0  0  0
   10.8044   -5.7216    2.4700 H   0  0  0  0  0  0
   12.7838   -6.0208    3.8738 H   0  0  0  0  0  0
   13.7836   -7.2347    5.7817 H   0  0  0  0  0  0
   12.3237   -8.2922    7.4875 H   0  0  0  0  0  0
    8.8475   -6.9190    5.3775 H   0  0  0  0  0  0
  1  2  1  0  0  0
  1 41  1  0  0  0
  1 42  1  0  0  0
  1 43  1  0  0  0
  2  3  2  0  0  0
  2  4  2  0  0  0
  2  5  1  0  0  0
  5  6  1  0  0  0
  5 44  1  0  0  0
  5 45  1  0  0  0
  6  7  1  0  0  0
  6 46  1  0  0  0
  6 47  1  0  0  0
  7  8  1  0  0  0
  7 48  1  0  0  0
  8  9  1  0  0  0
  8 49  1  0  0  0
  8 50  1  0  0  0
  9 13  1  0  0  0
  9 10  2  0  0  0
 10 11  1  0  0  0
 10 51  1  0  0  0
 11 12  2  0  0  0
 11 52  1  0  0  0
 12 13  1  0  0  0
 12 14  1  0  0  0
 14 19  2  0  0  0
 14 15  1  0  0  0
 15 16  2  0  0  0
 15 53  1  0  0  0
 16 17  1  0  0  0
 16 54  1  0  0  0
 17 23  1  0  0  0
 17 18  2  0  0  0
 18 19  1  0  0  0
 18 20  1  0  0  0
 19 55  1  0  0  0
 20 21  2  0  0  0
 20 24  1  0  0  0
 21 22  1  0  0  0
 22 23  2  0  0  0
 22 56  1  0  0  0
 24 25  1  0  0  0
 25 30  2  0  0  0
 25 26  1  0  0  0
 26 27  2  0  0  0
 26 57  1  0  0  0
 27 28  1  0  0  0
 27 58  1  0  0  0
 28 29  2  0  0  0
 28 32  1  0  0  0
 29 30  1  0  0  0
 29 31  1  0  0  0
 30 59  1  0  0  0
 32 33  1  0  0  0
 33 34  1  0  0  0
 33 60  1  0  0  0
 33 61  1  0  0  0
 34 39  2  0  0  0
 34 35  1  0  0  0
 35 36  2  0  0  0
 35 62  1  0  0  0
 36 37  1  0  0  0
 36 63  1  0  0  0
 37 38  2  0  0  0
 37 64  1  0  0  0
 38 39  1  0  0  0
 38 40  1  0  0  0
 39 65  1  0  0  0
M  CHG  1  24  -1
M  END
> <s_m_source_file>
/Users/andrea/Development/mcce-charges/epik_inhibitors/output/Lapatinib/Lapatinib-input.mol2

> <i_m_source_file_index>
1

> <r_epik_Ionization_Penalty>
  9.5607

> <r_epik_Ionization_Penalty_Charging>
  7.8944

> <r_epik_Ionization_Penalty_Neutral>
  1.6662

> <r_epik_State_Penalty>
  6.7924

> <i_epik_Tot_Q>
-1

$$$$
~{N}-[3-chloro-4-[(3-fluorophenyl)methoxy]phenyl]-6-[5-[(2-methylsulfonylethylamino)methyl]-2-furyl]quinazolin-4-amine
                    3D
 Structure written by MMmdl.
 66 70  0  0  1  0            999 V2000
    2.8503  -11.3698   -1.0891 C   0  0  0  0  0  0
    3.2007  -10.0950   -2.2748 S   0  0  0  0  0  0
    2.5506  -10.4556   -3.5196 O   0  0  0  0  0  0
    4.6239   -9.8224   -2.2261 O   0  0  0  0  0  0
    2.3584   -8.6923   -1.6113 C   0  0  0  0  0  0
    2.5222   -7.4583   -2.4777 C   0  0  0  0  0  0
    1.8259   -6.3035   -1.9269 N   0  3  0  0  0  0
    1.9983   -5.1506   -2.7675 C   0  0  0  0  0  0
    1.3040   -3.9709   -2.2320 C   0  0  0  0  0  0
    0.0348   -3.4687   -2.4016 C   0  0  0  0  0  0
   -0.0328   -2.2963   -1.6117 C   0  0  0  0  0  0
    1.1999   -2.1657   -1.0155 C   0  0  0  0  0  0
    2.0206   -3.1825   -1.3885 O   0  0  0  0  0  0
    1.7783   -1.2043   -0.1094 C   0  0  0  0  0  0
    1.0260   -0.1225    0.3346 C   0  0  0  0  0  0
    1.5879    0.8085    1.2133 C   0  0  0  0  0  0
    2.8996    0.6849    1.6651 C   0  0  0  0  0  0
    3.6493   -0.4117    1.2094 C   0  0  0  0  0  0
    3.0914   -1.3522    0.3260 C   0  0  0  0  0  0
    4.9553   -0.5014    1.6826 C   0  0  0  0  0  0
    5.5107    0.3871    2.5281 N   0  5  0  0  0  0
    4.7000    1.3924    2.8955 C   0  0  0  0  0  0
    3.4230    1.5905    2.5099 N   0  0  0  0  0  0
    5.7734   -1.5812    1.2667 N   0  0  0  0  0  0
    6.8294   -2.2643    1.8904 C   0  0  0  0  0  0
    7.8468   -2.8276    1.1202 C   0  0  0  0  0  0
    8.8963   -3.5062    1.7397 C   0  0  0  0  0  0
    8.9283   -3.6215    3.1295 C   0  0  0  0  0  0
    7.9109   -3.0582    3.8996 C   0  0  0  0  0  0
    6.8614   -2.3796    3.2801 C   0  0  0  0  0  0
    7.9256   -3.1859    5.6200 Cl  0  0  0  0  0  0
    9.9665   -4.2887    3.7081 O   0  0  0  0  0  0
   10.1404   -5.6564    3.3442 C   0  0  0  0  0  0
   10.7495   -6.3902    4.4999 C   0  0  0  0  0  0
   12.1366   -6.4806    4.6156 C   0  0  0  0  0  0
   12.7036   -7.1650    5.6907 C   0  0  0  0  0  0
   11.8835   -7.7590    6.6501 C   0  0  0  0  0  0
   10.4963   -7.6686    6.5342 C   0  0  0  0  0  0
    9.9293   -6.9842    5.4590 C   0  0  0  0  0  0
    9.7082   -8.2388    7.4551 F   0  0  0  0  0  0
    3.3323  -11.1227   -0.1318 H   0  0  0  0  0  0
    3.2388  -12.3305   -1.4580 H   0  0  0  0  0  0
    1.7626  -11.4459   -0.9432 H   0  0  0  0  0  0
    1.2836   -8.9130   -1.5333 H   0  0  0  0  0  0
    2.7589   -8.4625   -0.6129 H   0  0  0  0  0  0
    3.5899   -7.2067   -2.5595 H   0  0  0  0  0  0
    2.1145   -7.6572   -3.4799 H   0  0  0  0  0  0
    0.7516   -6.5261   -1.8486 H   0  0  0  0  0  0
    3.0691   -4.9122   -2.8478 H   0  0  0  0  0  0
    1.5938   -5.3626   -3.7682 H   0  0  0  0  0  0
   -0.7461   -3.8921   -3.0171 H   0  0  0  0  0  0
   -0.8779   -1.6327   -1.4945 H   0  0  0  0  0  0
    0.0818   -0.0111    0.0247 H   0  0  0  0  0  0
    1.0455    1.5859    1.5318 H   0  0  0  0  0  0
    3.6384   -2.1277    0.0107 H   0  0  0  0  0  0
    5.1383    2.0359    3.5230 H   0  0  0  0  0  0
    7.8322   -2.7424    0.0367 H   0  0  0  0  0  0
    9.6861   -3.9420    1.1335 H   0  0  0  0  0  0
    6.0661   -1.9378    3.8768 H   0  0  0  0  0  0
    9.1634   -6.0968    3.0963 H   0  0  0  0  0  0
   10.8045   -5.7216    2.4697 H   0  0  0  0  0  0
   12.7839   -6.0208    3.8735 H   0  0  0  0  0  0
   13.7837   -7.2349    5.7813 H   0  0  0  0  0  0
   12.3238   -8.2925    7.4870 H   0  0  0  0  0  0
    8.8476   -6.9193    5.3771 H   0  0  0  0  0  0
    2.2269   -6.0756   -0.9283 H   0  0  0  0  0  0
  1  2  1  0  0  0
  1 41  1  0  0  0
  1 42  1  0  0  0
  1 43  1  0  0  0
  2  3  2  0  0  0
  2  4  2  0  0  0
  2  5  1  0  0  0
  5  6  1  0  0  0
  5 44  1  0  0  0
  5 45  1  0  0  0
  6  7  1  0  0  0
  6 46  1  0  0  0
  6 47  1  0  0  0
  7  8  1  0  0  0
  7 48  1  0  0  0
  7 66  1  0  0  0
  8  9  1  0  0  0
  8 49  1  0  0  0
  8 50  1  0  0  0
  9 13  1  0  0  0
  9 10  2  0  0  0
 10 11  1  0  0  0
 10 51  1  0  0  0
 11 12  2  0  0  0
 11 52  1  0  0  0
 12 13  1  0  0  0
 12 14  1  0  0  0
 14 19  2  0  0  0
 14 15  1  0  0  0
 15 53  1  0  0  0
 15 16  2  0  0  0
 16 54  1  0  0  0
 16 17  1  0  0  0
 17 18  2  0  0  0
 17 23  1  0  0  0
 18 20  1  0  0  0
 18 19  1  0  0  0
 19 55  1  0  0  0
 20 24  2  0  0  0
 20 21  1  0  0  0
 21 22  1  0  0  0
 22 23  2  0  0  0
 22 56  1  0  0  0
 24 25  1  0  0  0
 25 30  2  0  0  0
 25 26  1  0  0  0
 26 27  2  0  0  0
 26 57  1  0  0  0
 27 28  1  0  0  0
 27 58  1  0  0  0
 28 29  2  0  0  0
 28 32  1  0  0  0
 29 30  1  0  0  0
 29 31  1  0  0  0
 30 59  1  0  0  0
 32 33  1  0  0  0
 33 34  1  0  0  0
 33 60  1  0  0  0
 33 61  1  0  0  0
 34 39  2  0  0  0
 34 35  1  0  0  0
 35 36  2  0  0  0
 35 62  1  0  0  0
 36 37  1  0  0  0
 36 63  1  0  0  0
 37 38  2  0  0  0
 37 64  1  0  0  0
 38 39  1  0  0  0
 38 40  1  0  0  0
 39 65  1  0  0  0
M  CHG  2   7   1  21  -1
M  END
> <s_m_source_file>
/Users/andrea/Development/mcce-charges/epik_inhibitors/output/Lapatinib/Lapatinib-input.mol2

> <i_m_source_file_index>
1

> <r_epik_Ionization_Penalty>
  9.0411

> <r_epik_Ionization_Penalty_Charging>
  0.9052

> <r_epik_Ionization_Penalty_Neutral>
  8.1359

> <r_epik_State_Penalty>
  6.8801

> <i_epik_Tot_Q>
0

> <s_epik_Chemistry_Notes>
This compound has an imine and may undergo hydrolysis.

$$$$
~{N}-[3-chloro-4-[(3-fluorophenyl)methoxy]phenyl]-6-[5-[(2-methylsulfonylethylamino)methyl]-2-furyl]quinazolin-4-amine
                    3D
 Structure written by MMmdl.
 66 70  0  0  1  0            999 V2000
    2.8503  -11.3698   -1.0891 C   0  0  0  0  0  0
    3.2007  -10.0950   -2.2748 S   0  0  0  0  0  0
    2.5506  -10.4556   -3.5196 O   0  0  0  0  0  0
    4.6239   -9.8224   -2.2261 O   0  0  0  0  0  0
    2.3584   -8.6923   -1.6113 C   0  0  0  0  0  0
    2.5222   -7.4583   -2.4777 C   0  0  0  0  0  0
    1.8259   -6.3035   -1.9269 N   0  3  0  0  0  0
    1.9983   -5.1506   -2.7675 C   0  0  0  0  0  0
    1.3040   -3.9709   -2.2320 C   0  0  0  0  0  0
    0.0348   -3.4687   -2.4016 C   0  0  0  0  0  0
   -0.0328   -2.2963   -1.6117 C   0  0  0  0  0  0
    1.1999   -2.1657   -1.0155 C   0  0  0  0  0  0
    2.0206   -3.1825   -1.3885 O   0  0  0  0  0  0
    1.7783   -1.2043   -0.1094 C   0  0  0  0  0  0
    1.0260   -0.1225    0.3346 C   0  0  0  0  0  0
    1.5879    0.8085    1.2133 C   0  0  0  0  0  0
    2.8996    0.6849    1.6651 C   0  0  0  0  0  0
    3.6493   -0.4117    1.2094 C   0  0  0  0  0  0
    3.0914   -1.3522    0.3260 C   0  0  0  0  0  0
    4.9553   -0.5014    1.6826 C   0  0  0  0  0  0
    5.5107    0.3871    2.5281 N   0  5  0  0  0  0
    4.7000    1.3924    2.8955 C   0  0  0  0  0  0
    3.4230    1.5905    2.5099 N   0  0  0  0  0  0
    5.7734   -1.5812    1.2667 N   0  0  0  0  0  0
    5.8110   -2.3415    0.0872 C   0  0  0  0  0  0
    6.2282   -3.6718    0.1280 C   0  0  0  0  0  0
    6.2653   -4.4275   -1.0438 C   0  0  0  0  0  0
    5.8852   -3.8527   -2.2566 C   0  0  0  0  0  0
    5.4679   -2.5224   -2.2975 C   0  0  0  0  0  0
    5.4309   -1.7667   -1.1256 C   0  0  0  0  0  0
    4.9925   -1.7865   -3.7837 Cl  0  0  0  0  0  0
    5.9300   -4.6149   -3.3858 O   0  0  0  0  0  0
    7.1986   -5.1510   -3.7551 C   0  0  0  0  0  0
    7.2495   -5.2884   -5.2463 C   0  0  0  0  0  0
    6.8273   -6.4716   -5.8525 C   0  0  0  0  0  0
    6.8761   -6.5999   -7.2406 C   0  0  0  0  0  0
    7.3470   -5.5451   -8.0225 C   0  0  0  0  0  0
    7.7694   -4.3620   -7.4161 C   0  0  0  0  0  0
    7.7206   -4.2336   -6.0280 C   0  0  0  0  0  0
    8.2218   -3.3487   -8.1664 F   0  0  0  0  0  0
    3.3323  -11.1227   -0.1318 H   0  0  0  0  0  0
    3.2388  -12.3305   -1.4580 H   0  0  0  0  0  0
    1.7626  -11.4459   -0.9432 H   0  0  0  0  0  0
    1.2836   -8.9130   -1.5333 H   0  0  0  0  0  0
    2.7589   -8.4625   -0.6129 H   0  0  0  0  0  0
    3.5899   -7.2067   -2.5595 H   0  0  0  0  0  0
    2.1145   -7.6572   -3.4799 H   0  0  0  0  0  0
    0.7516   -6.5261   -1.8486 H   0  0  0  0  0  0
    3.0691   -4.9122   -2.8478 H   0  0  0  0  0  0
    1.5938   -5.3626   -3.7682 H   0  0  0  0  0  0
   -0.7461   -3.8921   -3.0171 H   0  0  0  0  0  0
   -0.8779   -1.6327   -1.4945 H   0  0  0  0  0  0
    0.0818   -0.0111    0.0247 H   0  0  0  0  0  0
    1.0455    1.5859    1.5318 H   0  0  0  0  0  0
    3.6384   -2.1277    0.0107 H   0  0  0  0  0  0
    5.1383    2.0359    3.5230 H   0  0  0  0  0  0
    6.5253   -4.1298    1.0679 H   0  0  0  0  0  0
    6.5908   -5.4636   -1.0046 H   0  0  0  0  0  0
    5.1052   -0.7289   -1.1525 H   0  0  0  0  0  0
    7.9958   -4.4734   -3.4159 H   0  0  0  0  0  0
    7.3308   -6.1369   -3.2854 H   0  0  0  0  0  0
    6.4584   -7.2988   -5.2519 H   0  0  0  0  0  0
    6.5467   -7.5209   -7.7129 H   0  0  0  0  0  0
    7.3860   -5.6442   -9.1031 H   0  0  0  0  0  0
    8.0519   -3.3081   -5.5646 H   0  0  0  0  0  0
    2.2269   -6.0756   -0.9283 H   0  0  0  0  0  0
  1  2  1  0  0  0
  1 41  1  0  0  0
  1 42  1  0  0  0
  1 43  1  0  0  0
  2  3  2  0  0  0
  2  4  2  0  0  0
  2  5  1  0  0  0
  5  6  1  0  0  0
  5 44  1  0  0  0
  5 45  1  0  0  0
  6  7  1  0  0  0
  6 46  1  0  0  0
  6 47  1  0  0  0
  7  8  1  0  0  0
  7 48  1  0  0  0
  7 66  1  0  0  0
  8  9  1  0  0  0
  8 49  1  0  0  0
  8 50  1  0  0  0
  9 13  1  0  0  0
  9 10  2  0  0  0
 10 11  1  0  0  0
 10 51  1  0  0  0
 11 12  2  0  0  0
 11 52  1  0  0  0
 12 13  1  0  0  0
 12 14  1  0  0  0
 14 19  2  0  0  0
 14 15  1  0  0  0
 15 53  1  0  0  0
 15 16  2  0  0  0
 16 54  1  0  0  0
 16 17  1  0  0  0
 17 18  2  0  0  0
 17 23  1  0  0  0
 18 20  1  0  0  0
 18 19  1  0  0  0
 19 55  1  0  0  0
 20 24  2  0  0  0
 20 21  1  0  0  0
 21 22  1  0  0  0
 22 23  2  0  0  0
 22 56  1  0  0  0
 24 25  1  0  0  0
 25 30  2  0  0  0
 25 26  1  0  0  0
 26 27  2  0  0  0
 26 57  1  0  0  0
 27 28  1  0  0  0
 27 58  1  0  0  0
 28 29  2  0  0  0
 28 32  1  0  0  0
 29 30  1  0  0  0
 29 31  1  0  0  0
 30 59  1  0  0  0
 32 33  1  0  0  0
 33 34  1  0  0  0
 33 60  1  0  0  0
 33 61  1  0  0  0
 34 39  2  0  0  0
 34 35  1  0  0  0
 35 36  2  0  0  0
 35 62  1  0  0  0
 36 37  1  0  0  0
 36 63  1  0  0  0
 37 38  2  0  0  0
 37 64  1  0  0  0
 38 39  1  0  0  0
 38 40  1  0  0  0
 39 65  1  0  0  0
M  CHG  2   7   1  21  -1
M  END
> <s_m_source_file>
/Users/andrea/Development/mcce-charges/epik_inhibitors/output/Lapatinib/Lapatinib-input.mol2

> <i_m_source_file_index>
1

> <r_epik_Ionization_Penalty>
  9.0411

> <r_epik_Ionization_Penalty_Charging>
  0.9052

> <r_epik_Ionization_Penalty_Neutral>
  8.1359

> <r_epik_State_Penalty>
  6.8801

> <i_epik_Tot_Q>
0

> <s_epik_Chemistry_Notes>
This compound has an imine and may undergo hydrolysis.

$$$$
~{N}-[3-chloro-4-[(3-fluorophenyl)methoxy]phenyl]-6-[5-[(2-methylsulfonylethylamino)methyl]-2-furyl]quinazolin-4-amine
                    3D
 Structure written by MMmdl.
 67 71  0  0  1  0            999 V2000
    2.8506  -11.3702   -1.0877 C   0  0  0  0  0  0
    3.2008  -10.0955   -2.2736 S   0  0  0  0  0  0
    2.5505  -10.4562   -3.5182 O   0  0  0  0  0  0
    4.6239   -9.8228   -2.2251 O   0  0  0  0  0  0
    2.3585   -8.6927   -1.6101 C   0  0  0  0  0  0
    2.5220   -7.4588   -2.4767 C   0  0  0  0  0  0
    1.8258   -6.3040   -1.9259 N   0  0  0  0  0  0
    1.9979   -5.1512   -2.7666 C   0  0  0  0  0  0
    1.3037   -3.9715   -2.2312 C   0  0  0  0  0  0
    0.0344   -3.4694   -2.4006 C   0  0  0  0  0  0
   -0.0332   -2.2969   -1.6108 C   0  0  0  0  0  0
    1.1996   -2.1662   -1.0148 C   0  0  0  0  0  0
    2.0203   -3.1829   -1.3879 O   0  0  0  0  0  0
    1.7781   -1.2046   -0.1090 C   0  0  0  0  0  0
    1.0259   -0.1228    0.3350 C   0  0  0  0  0  0
    1.5879    0.8085    1.2132 C   0  0  0  0  0  0
    2.8996    0.6850    1.6650 C   0  0  0  0  0  0
    3.6493   -0.4117    1.2094 C   0  0  0  0  0  0
    3.0913   -1.3524    0.3263 C   0  0  0  0  0  0
    4.9553   -0.5013    1.6825 C   0  0  0  0  0  0
    5.5107    0.3871    2.5281 N   0  3  0  0  0  0
    4.7000    1.3925    2.8954 C   0  0  0  0  0  0
    3.4231    1.5906    2.5098 N   0  0  0  0  0  0
    5.7734   -1.5812    1.2667 N   0  0  0  0  0  0
    6.8294   -2.2643    1.8904 C   0  0  0  0  0  0
    7.8468   -2.8277    1.1203 C   0  0  0  0  0  0
    8.8963   -3.5062    1.7398 C   0  0  0  0  0  0
    8.9283   -3.6214    3.1296 C   0  0  0  0  0  0
    7.9109   -3.0580    3.8997 C   0  0  0  0  0  0
    6.8614   -2.3795    3.2801 C   0  0  0  0  0  0
    7.9256   -3.1856    5.6201 Cl  0  0  0  0  0  0
    9.9665   -4.2886    3.7083 O   0  0  0  0  0  0
   10.1403   -5.6563    3.3445 C   0  0  0  0  0  0
   10.7494   -6.3901    4.5002 C   0  0  0  0  0  0
   12.1365   -6.4805    4.6159 C   0  0  0  0  0  0
   12.7035   -7.1648    5.6911 C   0  0  0  0  0  0
   11.8834   -7.7587    6.6505 C   0  0  0  0  0  0
   10.4962   -7.6683    6.5346 C   0  0  0  0  0  0
    9.9292   -6.9840    5.4594 C   0  0  0  0  0  0
    9.7081   -8.2384    7.4556 F   0  0  0  0  0  0
    3.3327  -11.1229   -0.1304 H   0  0  0  0  0  0
    3.2392  -12.3309   -1.4565 H   0  0  0  0  0  0
    1.7630  -11.4463   -0.9416 H   0  0  0  0  0  0
    1.2837   -8.9135   -1.5319 H   0  0  0  0  0  0
    2.7591   -8.4628   -0.6118 H   0  0  0  0  0  0
    3.5897   -7.2072   -2.5587 H   0  0  0  0  0  0
    2.1142   -7.6578   -3.4788 H   0  0  0  0  0  0
    0.7514   -6.5267   -1.8474 H   0  0  0  0  0  0
    3.0687   -4.9127   -2.8471 H   0  0  0  0  0  0
    1.5933   -5.3634   -3.7672 H   0  0  0  0  0  0
   -0.7466   -3.8929   -3.0159 H   0  0  0  0  0  0
   -0.8783   -1.6333   -1.4936 H   0  0  0  0  0  0
   -0.0025    0.0142    0.0088 H   0  0  0  0  0  0
    0.9780    1.6463    1.5460 H   0  0  0  0  0  0
    3.6726   -2.2021   -0.0265 H   0  0  0  0  0  0
    5.1159    2.1256    3.5759 H   0  0  0  0  0  0
    5.6227   -2.0358    0.2764 H   0  0  0  0  0  0
    7.8322   -2.7426    0.0368 H   0  0  0  0  0  0
    9.6860   -3.9421    1.1337 H   0  0  0  0  0  0
    6.0661   -1.9376    3.8768 H   0  0  0  0  0  0
    9.1633   -6.0968    3.0967 H   0  0  0  0  0  0
   10.8044   -5.7216    2.4700 H   0  0  0  0  0  0
   12.7838   -6.0208    3.8738 H   0  0  0  0  0  0
   13.7836   -7.2347    5.7817 H   0  0  0  0  0  0
   12.3237   -8.2922    7.4875 H   0  0  0  0  0  0
    8.8475   -6.9190    5.3775 H   0  0  0  0  0  0
    6.5505    0.2535    2.8612 H   0  0  0  0  0  0
  1  2  1  0  0  0
  1 41  1  0  0  0
  1 42  1  0  0  0
  1 43  1  0  0  0
  2  3  2  0  0  0
  2  4  2  0  0  0
  2  5  1  0  0  0
  5  6  1  0  0  0
  5 44  1  0  0  0
  5 45  1  0  0  0
  6  7  1  0  0  0
  6 46  1  0  0  0
  6 47  1  0  0  0
  7  8  1  0  0  0
  7 48  1  0  0  0
  8  9  1  0  0  0
  8 49  1  0  0  0
  8 50  1  0  0  0
  9 13  1  0  0  0
  9 10  2  0  0  0
 10 11  1  0  0  0
 10 51  1  0  0  0
 11 12  2  0  0  0
 11 52  1  0  0  0
 12 13  1  0  0  0
 12 14  1  0  0  0
 14 19  2  0  0  0
 14 15  1  0  0  0
 15 16  2  0  0  0
 15 53  1  0  0  0
 16 17  1  0  0  0
 16 54  1  0  0  0
 17 23  1  0  0  0
 17 18  2  0  0  0
 18 19  1  0  0  0
 18 20  1  0  0  0
 19 55  1  0  0  0
 20 21  2  0  0  0
 20 24  1  0  0  0
 21 22  1  0  0  0
 21 67  1  0  0  0
 22 23  2  0  0  0
 22 56  1  0  0  0
 24 25  1  0  0  0
 24 57  1  0  0  0
 25 30  2  0  0  0
 25 26  1  0  0  0
 26 27  2  0  0  0
 26 58  1  0  0  0
 27 28  1  0  0  0
 27 59  1  0  0  0
 28 29  2  0  0  0
 28 32  1  0  0  0
 29 30  1  0  0  0
 29 31  1  0  0  0
 30 60  1  0  0  0
 32 33  1  0  0  0
 33 34  1  0  0  0
 33 61  1  0  0  0
 33 62  1  0  0  0
 34 39  2  0  0  0
 34 35  1  0  0  0
 35 36  2  0  0  0
 35 63  1  0  0  0
 36 37  1  0  0  0
 36 64  1  0  0  0
 37 38  2  0  0  0
 37 65  1  0  0  0
 38 39  1  0  0  0
 38 40  1  0  0  0
 39 66  1  0  0  0
M  CHG  1  21   1
M  END
> <s_m_source_file>
/Users/andrea/Development/mcce-charges/epik_inhibitors/output/Lapatinib/Lapatinib-input.mol2

> <i_m_source_file_index>
1

> <r_epik_Ionization_Penalty>
  8.3937

> <r_epik_Ionization_Penalty_Charging>
  6.7087

> <r_epik_Ionization_Penalty_Neutral>
  1.6850

> <r_epik_State_Penalty>
  7.1683

> <i_epik_Tot_Q>
1

$$$$
~{N}-[3-chloro-4-[(3-fluorophenyl)methoxy]phenyl]-6-[5-[(2-methylsulfonylethylamino)methyl]-2-furyl]quinazolin-4-amine
                    3D
 Structure written by MMmdl.
 67 71  0  0  1  0            999 V2000
    2.8503  -11.3698   -1.0891 C   0  0  0  0  0  0
    3.2007  -10.0950   -2.2748 S   0  0  0  0  0  0
    2.5506  -10.4556   -3.5196 O   0  0  0  0  0  0
    4.6239   -9.8224   -2.2261 O   0  0  0  0  0  0
    2.3584   -8.6923   -1.6113 C   0  0  0  0  0  0
    2.5222   -7.4583   -2.4777 C   0  0  0  0  0  0
    1.8259   -6.3035   -1.9269 N   0  3  0  0  0  0
    1.9983   -5.1506   -2.7675 C   0  0  0  0  0  0
    1.3040   -3.9709   -2.2320 C   0  0  0  0  0  0
    0.0348   -3.4687   -2.4016 C   0  0  0  0  0  0
   -0.0328   -2.2963   -1.6117 C   0  0  0  0  0  0
    1.1999   -2.1657   -1.0155 C   0  0  0  0  0  0
    2.0206   -3.1825   -1.3885 O   0  0  0  0  0  0
    1.7783   -1.2043   -0.1094 C   0  0  0  0  0  0
    1.0260   -0.1225    0.3346 C   0  0  0  0  0  0
    1.5879    0.8085    1.2133 C   0  0  0  0  0  0
    2.8996    0.6849    1.6651 C   0  0  0  0  0  0
    3.6493   -0.4117    1.2094 C   0  0  0  0  0  0
    3.0914   -1.3522    0.3260 C   0  0  0  0  0  0
    4.9553   -0.5014    1.6826 C   0  0  0  0  0  0
    5.5107    0.3871    2.5281 N   0  0  0  0  0  0
    4.7000    1.3924    2.8955 C   0  0  0  0  0  0
    3.4230    1.5905    2.5099 N   0  0  0  0  0  0
    5.7734   -1.5812    1.2667 N   0  0  0  0  0  0
    5.8110   -2.3415    0.0872 C   0  0  0  0  0  0
    6.2282   -3.6718    0.1280 C   0  0  0  0  0  0
    6.2653   -4.4275   -1.0438 C   0  0  0  0  0  0
    5.8852   -3.8527   -2.2566 C   0  0  0  0  0  0
    5.4679   -2.5224   -2.2975 C   0  0  0  0  0  0
    5.4309   -1.7667   -1.1256 C   0  0  0  0  0  0
    4.9925   -1.7865   -3.7837 Cl  0  0  0  0  0  0
    5.9300   -4.6149   -3.3858 O   0  0  0  0  0  0
    7.1986   -5.1510   -3.7551 C   0  0  0  0  0  0
    7.2495   -5.2884   -5.2463 C   0  0  0  0  0  0
    6.8273   -6.4716   -5.8525 C   0  0  0  0  0  0
    6.8761   -6.5999   -7.2406 C   0  0  0  0  0  0
    7.3470   -5.5451   -8.0225 C   0  0  0  0  0  0
    7.7694   -4.3620   -7.4161 C   0  0  0  0  0  0
    7.7206   -4.2336   -6.0280 C   0  0  0  0  0  0
    8.2218   -3.3487   -8.1664 F   0  0  0  0  0  0
    3.3323  -11.1227   -0.1318 H   0  0  0  0  0  0
    3.2388  -12.3305   -1.4580 H   0  0  0  0  0  0
    1.7626  -11.4459   -0.9432 H   0  0  0  0  0  0
    1.2836   -8.9130   -1.5333 H   0  0  0  0  0  0
    2.7589   -8.4625   -0.6129 H   0  0  0  0  0  0
    3.5899   -7.2067   -2.5595 H   0  0  0  0  0  0
    2.1145   -7.6572   -3.4799 H   0  0  0  0  0  0
    0.7516   -6.5261   -1.8486 H   0  0  0  0  0  0
    3.0691   -4.9122   -2.8478 H   0  0  0  0  0  0
    1.5938   -5.3626   -3.7682 H   0  0  0  0  0  0
   -0.7461   -3.8921   -3.0171 H   0  0  0  0  0  0
   -0.8779   -1.6327   -1.4945 H   0  0  0  0  0  0
    0.0818   -0.0111    0.0247 H   0  0  0  0  0  0
    1.0455    1.5859    1.5318 H   0  0  0  0  0  0
    3.6384   -2.1277    0.0107 H   0  0  0  0  0  0
    5.1383    2.0359    3.5230 H   0  0  0  0  0  0
    6.5389    0.3398    2.9162 H   0  0  0  0  0  0
    6.5253   -4.1298    1.0679 H   0  0  0  0  0  0
    6.5908   -5.4636   -1.0046 H   0  0  0  0  0  0
    5.1052   -0.7289   -1.1525 H   0  0  0  0  0  0
    7.9958   -4.4734   -3.4159 H   0  0  0  0  0  0
    7.3308   -6.1369   -3.2854 H   0  0  0  0  0  0
    6.4584   -7.2988   -5.2519 H   0  0  0  0  0  0
    6.5467   -7.5209   -7.7129 H   0  0  0  0  0  0
    7.3860   -5.6442   -9.1031 H   0  0  0  0  0  0
    8.0519   -3.3081   -5.5646 H   0  0  0  0  0  0
    2.2269   -6.0756   -0.9283 H   0  0  0  0  0  0
  1  2  1  0  0  0
  1 41  1  0  0  0
  1 42  1  0  0  0
  1 43  1  0  0  0
  2  3  2  0  0  0
  2  4  2  0  0  0
  2  5  1  0  0  0
  5  6  1  0  0  0
  5 44  1  0  0  0
  5 45  1  0  0  0
  6  7  1  0  0  0
  6 46  1  0  0  0
  6 47  1  0  0  0
  7  8  1  0  0  0
  7 48  1  0  0  0
  7 67  1  0  0  0
  8  9  1  0  0  0
  8 49  1  0  0  0
  8 50  1  0  0  0
  9 13  1  0  0  0
  9 10  2  0  0  0
 10 11  1  0  0  0
 10 51  1  0  0  0
 11 12  2  0  0  0
 11 52  1  0  0  0
 12 13  1  0  0  0
 12 14  1  0  0  0
 14 19  2  0  0  0
 14 15  1  0  0  0
 15 53  1  0  0  0
 15 16  2  0  0  0
 16 54  1  0  0  0
 16 17  1  0  0  0
 17 18  2  0  0  0
 17 23  1  0  0  0
 18 20  1  0  0  0
 18 19  1  0  0  0
 19 55  1  0  0  0
 20 24  2  0  0  0
 20 21  1  0  0  0
 21 22  1  0  0  0
 21 57  1  0  0  0
 22 23  2  0  0  0
 22 56  1  0  0  0
 24 25  1  0  0  0
 25 30  2  0  0  0
 25 26  1  0  0  0
 26 27  2  0  0  0
 26 58  1  0  0  0
 27 28  1  0  0  0
 27 59  1  0  0  0
 28 29  2  0  0  0
 28 32  1  0  0  0
 29 30  1  0  0  0
 29 31  1  0  0  0
 30 60  1  0  0  0
 32 33  1  0  0  0
 33 34  1  0  0  0
 33 61  1  0  0  0
 33 62  1  0  0  0
 34 39  2  0  0  0
 34 35  1  0  0  0
 35 36  2  0  0  0
 35 63  1  0  0  0
 36 37  1  0  0  0
 36 64  1  0  0  0
 37 38  2  0  0  0
 37 65  1  0  0  0
 38 39  1  0  0  0
 38 40  1  0  0  0
 39 66  1  0  0  0
M  CHG  1   7   1
M  END
> <s_m_source_file>
/Users/andrea/Development/mcce-charges/epik_inhibitors/output/Lapatinib/Lapatinib-input.mol2

> <i_m_source_file_index>
1

> <r_lp_tautomer_probability>
9.99989000120999e-06

> <r_epik_Ionization_Penalty>
  5.8135

> <r_epik_Ionization_Penalty_Charging>
  5.8135

> <r_epik_Ionization_Penalty_Neutral>
  0.0000

> <r_epik_State_Penalty>
  7.2708

> <i_epik_Tot_Q>
1

$$$$
~{N}-[3-chloro-4-[(3-fluorophenyl)methoxy]phenyl]-6-[5-[(2-methylsulfonylethylamino)methyl]-2-furyl]quinazolin-4-amine
                    3D
 Structure written by MMmdl.
 67 71  0  0  1  0            999 V2000
    2.8503  -11.3698   -1.0891 C   0  0  0  0  0  0
    3.2007  -10.0950   -2.2748 S   0  0  0  0  0  0
    2.5506  -10.4556   -3.5196 O   0  0  0  0  0  0
    4.6239   -9.8224   -2.2261 O   0  0  0  0  0  0
    2.3584   -8.6923   -1.6113 C   0  0  0  0  0  0
    2.5222   -7.4583   -2.4777 C   0  0  0  0  0  0
    1.8259   -6.3035   -1.9269 N   0  3  0  0  0  0
    1.9983   -5.1506   -2.7675 C   0  0  0  0  0  0
    1.3040   -3.9709   -2.2320 C   0  0  0  0  0  0
    0.0348   -3.4687   -2.4016 C   0  0  0  0  0  0
   -0.0328   -2.2963   -1.6117 C   0  0  0  0  0  0
    1.1999   -2.1657   -1.0155 C   0  0  0  0  0  0
    2.0206   -3.1825   -1.3885 O   0  0  0  0  0  0
    1.7783   -1.2043   -0.1094 C   0  0  0  0  0  0
    1.0260   -0.1225    0.3346 C   0  0  0  0  0  0
    1.5879    0.8085    1.2133 C   0  0  0  0  0  0
    2.8996    0.6849    1.6651 C   0  0  0  0  0  0
    3.6493   -0.4117    1.2094 C   0  0  0  0  0  0
    3.0914   -1.3522    0.3260 C   0  0  0  0  0  0
    4.9553   -0.5014    1.6826 C   0  0  0  0  0  0
    5.5107    0.3871    2.5281 N   0  0  0  0  0  0
    4.7000    1.3924    2.8955 C   0  0  0  0  0  0
    3.4230    1.5905    2.5099 N   0  0  0  0  0  0
    5.7734   -1.5812    1.2667 N   0  0  0  0  0  0
    6.8294   -2.2643    1.8904 C   0  0  0  0  0  0
    7.8468   -2.8276    1.1202 C   0  0  0  0  0  0
    8.8963   -3.5062    1.7397 C   0  0  0  0  0  0
    8.9283   -3.6215    3.1295 C   0  0  0  0  0  0
    7.9109   -3.0582    3.8996 C   0  0  0  0  0  0
    6.8614   -2.3796    3.2801 C   0  0  0  0  0  0
    7.9256   -3.1859    5.6200 Cl  0  0  0  0  0  0
    9.9665   -4.2887    3.7081 O   0  0  0  0  0  0
   10.1404   -5.6564    3.3442 C   0  0  0  0  0  0
   10.7495   -6.3902    4.4999 C   0  0  0  0  0  0
   12.1366   -6.4806    4.6156 C   0  0  0  0  0  0
   12.7036   -7.1650    5.6907 C   0  0  0  0  0  0
   11.8835   -7.7590    6.6501 C   0  0  0  0  0  0
   10.4963   -7.6686    6.5342 C   0  0  0  0  0  0
    9.9293   -6.9842    5.4590 C   0  0  0  0  0  0
    9.7082   -8.2388    7.4551 F   0  0  0  0  0  0
    3.3323  -11.1227   -0.1318 H   0  0  0  0  0  0
    3.2388  -12.3305   -1.4580 H   0  0  0  0  0  0
    1.7626  -11.4459   -0.9432 H   0  0  0  0  0  0
    1.2836   -8.9130   -1.5333 H   0  0  0  0  0  0
    2.7589   -8.4625   -0.6129 H   0  0  0  0  0  0
    3.5899   -7.2067   -2.5595 H   0  0  0  0  0  0
    2.1145   -7.6572   -3.4799 H   0  0  0  0  0  0
    0.7516   -6.5261   -1.8486 H   0  0  0  0  0  0
    3.0691   -4.9122   -2.8478 H   0  0  0  0  0  0
    1.5938   -5.3626   -3.7682 H   0  0  0  0  0  0
   -0.7461   -3.8921   -3.0171 H   0  0  0  0  0  0
   -0.8779   -1.6327   -1.4945 H   0  0  0  0  0  0
    0.0818   -0.0111    0.0247 H   0  0  0  0  0  0
    1.0455    1.5859    1.5318 H   0  0  0  0  0  0
    3.6384   -2.1277    0.0107 H   0  0  0  0  0  0
    5.1383    2.0359    3.5230 H   0  0  0  0  0  0
    6.5389    0.3398    2.9162 H   0  0  0  0  0  0
    7.8322   -2.7424    0.0367 H   0  0  0  0  0  0
    9.6861   -3.9420    1.1335 H   0  0  0  0  0  0
    6.0661   -1.9378    3.8768 H   0  0  0  0  0  0
    9.1634   -6.0968    3.0963 H   0  0  0  0  0  0
   10.8045   -5.7216    2.4697 H   0  0  0  0  0  0
   12.7839   -6.0208    3.8735 H   0  0  0  0  0  0
   13.7837   -7.2349    5.7813 H   0  0  0  0  0  0
   12.3238   -8.2925    7.4870 H   0  0  0  0  0  0
    8.8476   -6.9193    5.3771 H   0  0  0  0  0  0
    2.2269   -6.0756   -0.9283 H   0  0  0  0  0  0
  1  2  1  0  0  0
  1 41  1  0  0  0
  1 42  1  0  0  0
  1 43  1  0  0  0
  2  3  2  0  0  0
  2  4  2  0  0  0
  2  5  1  0  0  0
  5  6  1  0  0  0
  5 44  1  0  0  0
  5 45  1  0  0  0
  6  7  1  0  0  0
  6 46  1  0  0  0
  6 47  1  0  0  0
  7  8  1  0  0  0
  7 48  1  0  0  0
  7 67  1  0  0  0
  8  9  1  0  0  0
  8 49  1  0  0  0
  8 50  1  0  0  0
  9 13  1  0  0  0
  9 10  2  0  0  0
 10 11  1  0  0  0
 10 51  1  0  0  0
 11 12  2  0  0  0
 11 52  1  0  0  0
 12 13  1  0  0  0
 12 14  1  0  0  0
 14 19  2  0  0  0
 14 15  1  0  0  0
 15 53  1  0  0  0
 15 16  2  0  0  0
 16 54  1  0  0  0
 16 17  1  0  0  0
 17 18  2  0  0  0
 17 23  1  0  0  0
 18 20  1  0  0  0
 18 19  1  0  0  0
 19 55  1  0  0  0
 20 24  2  0  0  0
 20 21  1  0  0  0
 21 22  1  0  0  0
 21 57  1  0  0  0
 22 23  2  0  0  0
 22 56  1  0  0  0
 24 25  1  0  0  0
 25 30  2  0  0  0
 25 26  1  0  0  0
 26 27  2  0  0  0
 26 58  1  0  0  0
 27 28  1  0  0  0
 27 59  1  0  0  0
 28 29  2  0  0  0
 28 32  1  0  0  0
 29 30  1  0  0  0
 29 31  1  0  0  0
 30 60  1  0  0  0
 32 33  1  0  0  0
 33 34  1  0  0  0
 33 61  1  0  0  0
 33 62  1  0  0  0
 34 39  2  0  0  0
 34 35  1  0  0  0
 35 36  2  0  0  0
 35 63  1  0  0  0
 36 37  1  0  0  0
 36 64  1  0  0  0
 37 38  2  0  0  0
 37 65  1  0  0  0
 38 39  1  0  0  0
 38 40  1  0  0  0
 39 66  1  0  0  0
M  CHG  1   7   1
M  END
> <s_m_source_file>
/Users/andrea/Development/mcce-charges/epik_inhibitors/output/Lapatinib/Lapatinib-input.mol2

> <i_m_source_file_index>
1

> <r_lp_tautomer_probability>
9.99989000120999e-06

> <r_epik_Ionization_Penalty>
  5.8135

> <r_epik_Ionization_Penalty_Charging>
  5.8135

> <r_epik_Ionization_Penalty_Neutral>
  0.0000

> <r_epik_State_Penalty>
  7.2718

> <i_epik_Tot_Q>
1

$$$$
~{N}-[3-chloro-4-[(3-fluorophenyl)methoxy]phenyl]-6-[5-[(2-methylsulfonylethylamino)methyl]-2-furyl]quinazolin-4-amine
                    3D
 Structure written by MMmdl.
 67 71  0  0  1  0            999 V2000
    2.8503  -11.3698   -1.0891 C   0  0  0  0  0  0
    3.2007  -10.0950   -2.2748 S   0  0  0  0  0  0
    2.5506  -10.4556   -3.5196 O   0  0  0  0  0  0
    4.6239   -9.8224   -2.2261 O   0  0  0  0  0  0
    2.3584   -8.6923   -1.6113 C   0  0  0  0  0  0
    2.5222   -7.4583   -2.4777 C   0  0  0  0  0  0
    1.8259   -6.3035   -1.9269 N   0  3  0  0  0  0
    1.9983   -5.1506   -2.7675 C   0  0  0  0  0  0
    1.3040   -3.9709   -2.2320 C   0  0  0  0  0  0
    0.0348   -3.4687   -2.4016 C   0  0  0  0  0  0
   -0.0328   -2.2963   -1.6117 C   0  0  0  0  0  0
    1.1999   -2.1657   -1.0155 C   0  0  0  0  0  0
    2.0206   -3.1825   -1.3885 O   0  0  0  0  0  0
    1.7783   -1.2043   -0.1094 C   0  0  0  0  0  0
    1.0260   -0.1225    0.3346 C   0  0  0  0  0  0
    1.5879    0.8085    1.2133 C   0  0  0  0  0  0
    2.8996    0.6849    1.6651 C   0  0  0  0  0  0
    3.6493   -0.4117    1.2094 C   0  0  0  0  0  0
    3.0914   -1.3522    0.3260 C   0  0  0  0  0  0
    4.9553   -0.5014    1.6826 C   0  0  0  0  0  0
    5.5107    0.3871    2.5281 N   0  0  0  0  0  0
    4.7000    1.3924    2.8955 C   0  0  0  0  0  0
    3.4230    1.5905    2.5099 N   0  0  0  0  0  0
    5.7734   -1.5812    1.2667 N   0  0  0  0  0  0
    5.8110   -2.3415    0.0872 C   0  0  0  0  0  0
    6.2282   -3.6718    0.1280 C   0  0  0  0  0  0
    6.2653   -4.4275   -1.0438 C   0  0  0  0  0  0
    5.8852   -3.8527   -2.2566 C   0  0  0  0  0  0
    5.4679   -2.5224   -2.2975 C   0  0  0  0  0  0
    5.4309   -1.7667   -1.1256 C   0  0  0  0  0  0
    4.9925   -1.7865   -3.7837 Cl  0  0  0  0  0  0
    5.9300   -4.6149   -3.3858 O   0  0  0  0  0  0
    7.1986   -5.1510   -3.7551 C   0  0  0  0  0  0
    7.2495   -5.2884   -5.2463 C   0  0  0  0  0  0
    6.8273   -6.4716   -5.8525 C   0  0  0  0  0  0
    6.8761   -6.5999   -7.2406 C   0  0  0  0  0  0
    7.3470   -5.5451   -8.0225 C   0  0  0  0  0  0
    7.7694   -4.3620   -7.4161 C   0  0  0  0  0  0
    7.7206   -4.2336   -6.0280 C   0  0  0  0  0  0
    8.2218   -3.3487   -8.1664 F   0  0  0  0  0  0
    3.3323  -11.1227   -0.1318 H   0  0  0  0  0  0
    3.2388  -12.3305   -1.4580 H   0  0  0  0  0  0
    1.7626  -11.4459   -0.9432 H   0  0  0  0  0  0
    1.2836   -8.9130   -1.5333 H   0  0  0  0  0  0
    2.7589   -8.4625   -0.6129 H   0  0  0  0  0  0
    3.5899   -7.2067   -2.5595 H   0  0  0  0  0  0
    2.1145   -7.6572   -3.4799 H   0  0  0  0  0  0
    0.7516   -6.5261   -1.8486 H   0  0  0  0  0  0
    3.0691   -4.9122   -2.8478 H   0  0  0  0  0  0
    1.5938   -5.3626   -3.7682 H   0  0  0  0  0  0
   -0.7461   -3.8921   -3.0171 H   0  0  0  0  0  0
   -0.8779   -1.6327   -1.4945 H   0  0  0  0  0  0
    0.0818   -0.0111    0.0247 H   0  0  0  0  0  0
    1.0455    1.5859    1.5318 H   0  0  0  0  0  0
    3.6384   -2.1277    0.0107 H   0  0  0  0  0  0
    5.0308    2.0980    3.5222 H   0  0  0  0  0  0
    2.8140    2.4403    2.8518 H   0  0  0  0  0  0
    6.5253   -4.1298    1.0679 H   0  0  0  0  0  0
    6.5908   -5.4636   -1.0046 H   0  0  0  0  0  0
    5.1052   -0.7289   -1.1525 H   0  0  0  0  0  0
    7.9958   -4.4734   -3.4159 H   0  0  0  0  0  0
    7.3308   -6.1369   -3.2854 H   0  0  0  0  0  0
    6.4584   -7.2988   -5.2519 H   0  0  0  0  0  0
    6.5467   -7.5209   -7.7129 H   0  0  0  0  0  0
    7.3860   -5.6442   -9.1031 H   0  0  0  0  0  0
    8.0519   -3.3081   -5.5646 H   0  0  0  0  0  0
    2.2269   -6.0756   -0.9283 H   0  0  0  0  0  0
  1  2  1  0  0  0
  1 41  1  0  0  0
  1 42  1  0  0  0
  1 43  1  0  0  0
  2  3  2  0  0  0
  2  4  2  0  0  0
  2  5  1  0  0  0
  5  6  1  0  0  0
  5 44  1  0  0  0
  5 45  1  0  0  0
  6  7  1  0  0  0
  6 46  1  0  0  0
  6 47  1  0  0  0
  7  8  1  0  0  0
  7 48  1  0  0  0
  7 67  1  0  0  0
  8  9  1  0  0  0
  8 49  1  0  0  0
  8 50  1  0  0  0
  9 13  1  0  0  0
  9 10  2  0  0  0
 10 11  1  0  0  0
 10 51  1  0  0  0
 11 12  2  0  0  0
 11 52  1  0  0  0
 12 13  1  0  0  0
 12 14  1  0  0  0
 14 19  2  0  0  0
 14 15  1  0  0  0
 15 53  1  0  0  0
 15 16  2  0  0  0
 16 54  1  0  0  0
 16 17  1  0  0  0
 17 18  2  0  0  0
 17 23  1  0  0  0
 18 20  1  0  0  0
 18 19  1  0  0  0
 19 55  1  0  0  0
 20 24  2  0  0  0
 20 21  1  0  0  0
 21 22  2  0  0  0
 22 23  1  0  0  0
 22 56  1  0  0  0
 23 57  1  0  0  0
 24 25  1  0  0  0
 25 30  2  0  0  0
 25 26  1  0  0  0
 26 27  2  0  0  0
 26 58  1  0  0  0
 27 28  1  0  0  0
 27 59  1  0  0  0
 28 29  2  0  0  0
 28 32  1  0  0  0
 29 30  1  0  0  0
 29 31  1  0  0  0
 30 60  1  0  0  0
 32 33  1  0  0  0
 33 34  1  0  0  0
 33 61  1  0  0  0
 33 62  1  0  0  0
 34 39  2  0  0  0
 34 35  1  0  0  0
 35 36  2  0  0  0
 35 63  1  0  0  0
 36 37  1  0  0  0
 36 64  1  0  0  0
 37 38  2  0  0  0
 37 65  1  0  0  0
 38 39  1  0  0  0
 38 40  1  0  0  0
 39 66  1  0  0  0
M  CHG  1   7   1
M  END
> <s_m_source_file>
/Users/andrea/Development/mcce-charges/epik_inhibitors/output/Lapatinib/Lapatinib-input.mol2

> <i_m_source_file_index>
1

> <r_lp_tautomer_probability>
9.99989000120999e-07

> <r_epik_Ionization_Penalty>
  8.1201

> <r_epik_Ionization_Penalty_Charging>
  8.1201

> <r_epik_Ionization_Penalty_Neutral>
  0.0000

> <r_epik_State_Penalty>
  8.6062

> <i_epik_Tot_Q>
1

$$$$
~{N}-[3-chloro-4-[(3-fluorophenyl)methoxy]phenyl]-6-[5-[(2-methylsulfonylethylamino)methyl]-2-furyl]quinazolin-4-amine
                    3D
 Structure written by MMmdl.
 65 69  0  0  1  0            999 V2000
    2.8503  -11.3698   -1.0891 C   0  0  0  0  0  0
    3.2007  -10.0950   -2.2748 S   0  0  0  0  0  0
    2.5506  -10.4556   -3.5196 O   0  0  0  0  0  0
    4.6239   -9.8224   -2.2261 O   0  0  0  0  0  0
    2.3584   -8.6923   -1.6113 C   0  0  0  0  0  0
    2.5222   -7.4583   -2.4777 C   0  0  0  0  0  0
    1.8259   -6.3035   -1.9269 N   0  0  0  0  0  0
    1.9983   -5.1506   -2.7675 C   0  0  0  0  0  0
    1.3040   -3.9709   -2.2320 C   0  0  0  0  0  0
    0.0348   -3.4687   -2.4016 C   0  0  0  0  0  0
   -0.0328   -2.2963   -1.6117 C   0  0  0  0  0  0
    1.1999   -2.1657   -1.0155 C   0  0  0  0  0  0
    2.0206   -3.1825   -1.3885 O   0  0  0  0  0  0
    1.7783   -1.2043   -0.1094 C   0  0  0  0  0  0
    1.0260   -0.1225    0.3346 C   0  0  0  0  0  0
    1.5879    0.8085    1.2133 C   0  0  0  0  0  0
    2.8996    0.6849    1.6651 C   0  0  0  0  0  0
    3.6493   -0.4117    1.2094 C   0  0  0  0  0  0
    3.0914   -1.3522    0.3260 C   0  0  0  0  0  0
    4.9553   -0.5014    1.6826 C   0  0  0  0  0  0
    5.5107    0.3871    2.5281 N   0  5  0  0  0  0
    4.7000    1.3924    2.8955 C   0  0  0  0  0  0
    3.4230    1.5905    2.5099 N   0  0  0  0  0  0
    5.7734   -1.5812    1.2667 N   0  0  0  0  0  0
    6.8294   -2.2643    1.8904 C   0  0  0  0  0  0
    7.8468   -2.8276    1.1202 C   0  0  0  0  0  0
    8.8963   -3.5062    1.7397 C   0  0  0  0  0  0
    8.9283   -3.6215    3.1295 C   0  0  0  0  0  0
    7.9109   -3.0582    3.8996 C   0  0  0  0  0  0
    6.8614   -2.3796    3.2801 C   0  0  0  0  0  0
    7.9256   -3.1859    5.6200 Cl  0  0  0  0  0  0
    9.9665   -4.2887    3.7081 O   0  0  0  0  0  0
   10.1404   -5.6564    3.3442 C   0  0  0  0  0  0
   10.7495   -6.3902    4.4999 C   0  0  0  0  0  0
   12.1366   -6.4806    4.6156 C   0  0  0  0  0  0
   12.7036   -7.1650    5.6907 C   0  0  0  0  0  0
   11.8835   -7.7590    6.6501 C   0  0  0  0  0  0
   10.4963   -7.6686    6.5342 C   0  0  0  0  0  0
    9.9293   -6.9842    5.4590 C   0  0  0  0  0  0
    9.7082   -8.2388    7.4551 F   0  0  0  0  0  0
    3.3323  -11.1227   -0.1318 H   0  0  0  0  0  0
    3.2388  -12.3305   -1.4580 H   0  0  0  0  0  0
    1.7626  -11.4459   -0.9432 H   0  0  0  0  0  0
    1.2836   -8.9130   -1.5333 H   0  0  0  0  0  0
    2.7589   -8.4625   -0.6129 H   0  0  0  0  0  0
    3.5899   -7.2067   -2.5595 H   0  0  0  0  0  0
    2.1145   -7.6572   -3.4799 H   0  0  0  0  0  0
    0.7516   -6.5261   -1.8486 H   0  0  0  0  0  0
    3.0691   -4.9122   -2.8478 H   0  0  0  0  0  0
    1.5938   -5.3626   -3.7682 H   0  0  0  0  0  0
   -0.7461   -3.8921   -3.0171 H   0  0  0  0  0  0
   -0.8779   -1.6327   -1.4945 H   0  0  0  0  0  0
    0.0818   -0.0111    0.0247 H   0  0  0  0  0  0
    1.0455    1.5859    1.5318 H   0  0  0  0  0  0
    3.6384   -2.1277    0.0107 H   0  0  0  0  0  0
    5.1383    2.0359    3.5230 H   0  0  0  0  0  0
    7.8322   -2.7424    0.0367 H   0  0  0  0  0  0
    9.6861   -3.9420    1.1335 H   0  0  0  0  0  0
    6.0661   -1.9378    3.8768 H   0  0  0  0  0  0
    9.1634   -6.0968    3.0963 H   0  0  0  0  0  0
   10.8045   -5.7216    2.4697 H   0  0  0  0  0  0
   12.7839   -6.0208    3.8735 H   0  0  0  0  0  0
   13.7837   -7.2349    5.7813 H   0  0  0  0  0  0
   12.3238   -8.2925    7.4870 H   0  0  0  0  0  0
    8.8476   -6.9193    5.3771 H   0  0  0  0  0  0
  1  2  1  0  0  0
  1 41  1  0  0  0
  1 42  1  0  0  0
  1 43  1  0  0  0
  2  3  2  0  0  0
  2  4  2  0  0  0
  2  5  1  0  0  0
  5  6  1  0  0  0
  5 44  1  0  0  0
  5 45  1  0  0  0
  6  7  1  0  0  0
  6 46  1  0  0  0
  6 47  1  0  0  0
  7  8  1  0  0  0
  7 48  1  0  0  0
  8  9  1  0  0  0
  8 49  1  0  0  0
  8 50  1  0  0  0
  9 13  1  0  0  0
  9 10  2  0  0  0
 10 11  1  0  0  0
 10 51  1  0  0  0
 11 12  2  0  0  0
 11 52  1  0  0  0
 12 13  1  0  0  0
 12 14  1  0  0  0
 14 19  2  0  0  0
 14 15  1  0  0  0
 15 53  1  0  0  0
 15 16  2  0  0  0
 16 54  1  0  0  0
 16 17  1  0  0  0
 17 18  2  0  0  0
 17 23  1  0  0  0
 18 20  1  0  0  0
 18 19  1  0  0  0
 19 55  1  0  0  0
 20 24  2  0  0  0
 20 21  1  0  0  0
 21 22  1  0  0  0
 22 23  2  0  0  0
 22 56  1  0  0  0
 24 25  1  0  0  0
 25 30  2  0  0  0
 25 26  1  0  0  0
 26 27  2  0  0  0
 26 57  1  0  0  0
 27 28  1  0  0  0
 27 58  1  0  0  0
 28 29  2  0  0  0
 28 32  1  0  0  0
 29 30  1  0  0  0
 29 31  1  0  0  0
 30 59  1  0  0  0
 32 33  1  0  0  0
 33 34  1  0  0  0
 33 60  1  0  0  0
 33 61  1  0  0  0
 34 39  2  0  0  0
 34 35  1  0  0  0
 35 36  2  0  0  0
 35 62  1  0  0  0
 36 37  1  0  0  0
 36 63  1  0  0  0
 37 38  2  0  0  0
 37 64  1  0  0  0
 38 39  1  0  0  0
 38 40  1  0  0  0
 39 65  1  0  0  0
M  CHG  1  21  -1
M  END
> <s_m_source_file>
/Users/andrea/Development/mcce-charges/epik_inhibitors/output/Lapatinib/Lapatinib-input.mol2

> <i_m_source_file_index>
1

> <r_epik_Ionization_Penalty>
 10.6668

> <r_epik_Ionization_Penalty_Charging>
  0.8683

> <r_epik_Ionization_Penalty_Neutral>
  9.7985

> <r_epik_State_Penalty>
  8.6145

> <i_epik_Tot_Q>
-1

> <s_epik_Chemistry_Notes>
This compound has an imine and may undergo hydrolysis.

$$$$
~{N}-[3-chloro-4-[(3-fluorophenyl)methoxy]phenyl]-6-[5-[(2-methylsulfonylethylamino)methyl]-2-furyl]quinazolin-4-amine
                    3D
 Structure written by MMmdl.
 65 69  0  0  1  0            999 V2000
    2.8503  -11.3698   -1.0891 C   0  0  0  0  0  0
    3.2007  -10.0950   -2.2748 S   0  0  0  0  0  0
    2.5506  -10.4556   -3.5196 O   0  0  0  0  0  0
    4.6239   -9.8224   -2.2261 O   0  0  0  0  0  0
    2.3584   -8.6923   -1.6113 C   0  0  0  0  0  0
    2.5222   -7.4583   -2.4777 C   0  0  0  0  0  0
    1.8259   -6.3035   -1.9269 N   0  0  0  0  0  0
    1.9983   -5.1506   -2.7675 C   0  0  0  0  0  0
    1.3040   -3.9709   -2.2320 C   0  0  0  0  0  0
    0.0348   -3.4687   -2.4016 C   0  0  0  0  0  0
   -0.0328   -2.2963   -1.6117 C   0  0  0  0  0  0
    1.1999   -2.1657   -1.0155 C   0  0  0  0  0  0
    2.0206   -3.1825   -1.3885 O   0  0  0  0  0  0
    1.7783   -1.2043   -0.1094 C   0  0  0  0  0  0
    1.0260   -0.1225    0.3346 C   0  0  0  0  0  0
    1.5879    0.8085    1.2133 C   0  0  0  0  0  0
    2.8996    0.6849    1.6651 C   0  0  0  0  0  0
    3.6493   -0.4117    1.2094 C   0  0  0  0  0  0
    3.0914   -1.3522    0.3260 C   0  0  0  0  0  0
    4.9553   -0.5014    1.6826 C   0  0  0  0  0  0
    5.5107    0.3871    2.5281 N   0  5  0  0  0  0
    4.7000    1.3924    2.8955 C   0  0  0  0  0  0
    3.4230    1.5905    2.5099 N   0  0  0  0  0  0
    5.7734   -1.5812    1.2667 N   0  0  0  0  0  0
    5.8110   -2.3415    0.0872 C   0  0  0  0  0  0
    6.2282   -3.6718    0.1280 C   0  0  0  0  0  0
    6.2653   -4.4275   -1.0438 C   0  0  0  0  0  0
    5.8852   -3.8527   -2.2566 C   0  0  0  0  0  0
    5.4679   -2.5224   -2.2975 C   0  0  0  0  0  0
    5.4309   -1.7667   -1.1256 C   0  0  0  0  0  0
    4.9925   -1.7865   -3.7837 Cl  0  0  0  0  0  0
    5.9300   -4.6149   -3.3858 O   0  0  0  0  0  0
    7.1986   -5.1510   -3.7551 C   0  0  0  0  0  0
    7.2495   -5.2884   -5.2463 C   0  0  0  0  0  0
    6.8273   -6.4716   -5.8525 C   0  0  0  0  0  0
    6.8761   -6.5999   -7.2406 C   0  0  0  0  0  0
    7.3470   -5.5451   -8.0225 C   0  0  0  0  0  0
    7.7694   -4.3620   -7.4161 C   0  0  0  0  0  0
    7.7206   -4.2336   -6.0280 C   0  0  0  0  0  0
    8.2218   -3.3487   -8.1664 F   0  0  0  0  0  0
    3.3323  -11.1227   -0.1318 H   0  0  0  0  0  0
    3.2388  -12.3305   -1.4580 H   0  0  0  0  0  0
    1.7626  -11.4459   -0.9432 H   0  0  0  0  0  0
    1.2836   -8.9130   -1.5333 H   0  0  0  0  0  0
    2.7589   -8.4625   -0.6129 H   0  0  0  0  0  0
    3.5899   -7.2067   -2.5595 H   0  0  0  0  0  0
    2.1145   -7.6572   -3.4799 H   0  0  0  0  0  0
    0.7516   -6.5261   -1.8486 H   0  0  0  0  0  0
    3.0691   -4.9122   -2.8478 H   0  0  0  0  0  0
    1.5938   -5.3626   -3.7682 H   0  0  0  0  0  0
   -0.7461   -3.8921   -3.0171 H   0  0  0  0  0  0
   -0.8779   -1.6327   -1.4945 H   0  0  0  0  0  0
    0.0818   -0.0111    0.0247 H   0  0  0  0  0  0
    1.0455    1.5859    1.5318 H   0  0  0  0  0  0
    3.6384   -2.1277    0.0107 H   0  0  0  0  0  0
    5.1383    2.0359    3.5230 H   0  0  0  0  0  0
    6.5253   -4.1298    1.0679 H   0  0  0  0  0  0
    6.5908   -5.4636   -1.0046 H   0  0  0  0  0  0
    5.1052   -0.7289   -1.1525 H   0  0  0  0  0  0
    7.9958   -4.4734   -3.4159 H   0  0  0  0  0  0
    7.3308   -6.1369   -3.2854 H   0  0  0  0  0  0
    6.4584   -7.2988   -5.2519 H   0  0  0  0  0  0
    6.5467   -7.5209   -7.7129 H   0  0  0  0  0  0
    7.3860   -5.6442   -9.1031 H   0  0  0  0  0  0
    8.0519   -3.3081   -5.5646 H   0  0  0  0  0  0
  1  2  1  0  0  0
  1 41  1  0  0  0
  1 42  1  0  0  0
  1 43  1  0  0  0
  2  3  2  0  0  0
  2  4  2  0  0  0
  2  5  1  0  0  0
  5  6  1  0  0  0
  5 44  1  0  0  0
  5 45  1  0  0  0
  6  7  1  0  0  0
  6 46  1  0  0  0
  6 47  1  0  0  0
  7  8  1  0  0  0
  7 48  1  0  0  0
  8  9  1  0  0  0
  8 49  1  0  0  0
  8 50  1  0  0  0
  9 13  1  0  0  0
  9 10  2  0  0  0
 10 11  1  0  0  0
 10 51  1  0  0  0
 11 12  2  0  0  0
 11 52  1  0  0  0
 12 13  1  0  0  0
 12 14  1  0  0  0
 14 19  2  0  0  0
 14 15  1  0  0  0
 15 53  1  0  0  0
 15 16  2  0  0  0
 16 54  1  0  0  0
 16 17  1  0  0  0
 17 18  2  0  0  0
 17 23  1  0  0  0
 18 20  1  0  0  0
 18 19  1  0  0  0
 19 55  1  0  0  0
 20 24  2  0  0  0
 20 21  1  0  0  0
 21 22  1  0  0  0
 22 23  2  0  0  0
 22 56  1  0  0  0
 24 25  1  0  0  0
 25 30  2  0  0  0
 25 26  1  0  0  0
 26 27  2  0  0  0
 26 57  1  0  0  0
 27 28  1  0  0  0
 27 58  1  0  0  0
 28 29  2  0  0  0
 28 32  1  0  0  0
 29 30  1  0  0  0
 29 31  1  0  0  0
 30 59  1  0  0  0
 32 33  1  0  0  0
 33 34  1  0  0  0
 33 60  1  0  0  0
 33 61  1  0  0  0
 34 39  2  0  0  0
 34 35  1  0  0  0
 35 36  2  0  0  0
 35 62  1  0  0  0
 36 37  1  0  0  0
 36 63  1  0  0  0
 37 38  2  0  0  0
 37 64  1  0  0  0
 38 39  1  0  0  0
 38 40  1  0  0  0
 39 65  1  0  0  0
M  CHG  1  21  -1
M  END
> <s_m_source_file>
/Users/andrea/Development/mcce-charges/epik_inhibitors/output/Lapatinib/Lapatinib-input.mol2

> <i_m_source_file_index>
1

> <r_epik_Ionization_Penalty>
 10.6668

> <r_epik_Ionization_Penalty_Charging>
  0.8683

> <r_epik_Ionization_Penalty_Neutral>
  9.7985

> <r_epik_State_Penalty>
  8.6145

> <i_epik_Tot_Q>
-1

> <s_epik_Chemistry_Notes>
This compound has an imine and may undergo hydrolysis.

$$$$
~{N}-[3-chloro-4-[(3-fluorophenyl)methoxy]phenyl]-6-[5-[(2-methylsulfonylethylamino)methyl]-2-furyl]quinazolin-4-amine
                    3D
 Structure written by MMmdl.
 67 71  0  0  1  0            999 V2000
    2.8503  -11.3698   -1.0891 C   0  0  0  0  0  0
    3.2007  -10.0950   -2.2748 S   0  0  0  0  0  0
    2.5506  -10.4556   -3.5196 O   0  0  0  0  0  0
    4.6239   -9.8224   -2.2261 O   0  0  0  0  0  0
    2.3584   -8.6923   -1.6113 C   0  0  0  0  0  0
    2.5222   -7.4583   -2.4777 C   0  0  0  0  0  0
    1.8259   -6.3035   -1.9269 N   0  3  0  0  0  0
    1.9983   -5.1506   -2.7675 C   0  0  0  0  0  0
    1.3040   -3.9709   -2.2320 C   0  0  0  0  0  0
    0.0348   -3.4687   -2.4016 C   0  0  0  0  0  0
   -0.0328   -2.2963   -1.6117 C   0  0  0  0  0  0
    1.1999   -2.1657   -1.0155 C   0  0  0  0  0  0
    2.0206   -3.1825   -1.3885 O   0  0  0  0  0  0
    1.7783   -1.2043   -0.1094 C   0  0  0  0  0  0
    1.0260   -0.1225    0.3346 C   0  0  0  0  0  0
    1.5879    0.8085    1.2133 C   0  0  0  0  0  0
    2.8996    0.6849    1.6651 C   0  0  0  0  0  0
    3.6493   -0.4117    1.2094 C   0  0  0  0  0  0
    3.0914   -1.3522    0.3260 C   0  0  0  0  0  0
    4.9553   -0.5014    1.6826 C   0  0  0  0  0  0
    5.5107    0.3871    2.5281 N   0  0  0  0  0  0
    4.7000    1.3924    2.8955 C   0  0  0  0  0  0
    3.4230    1.5905    2.5099 N   0  0  0  0  0  0
    5.7734   -1.5812    1.2667 N   0  0  0  0  0  0
    6.8294   -2.2643    1.8904 C   0  0  0  0  0  0
    7.8468   -2.8276    1.1202 C   0  0  0  0  0  0
    8.8963   -3.5062    1.7397 C   0  0  0  0  0  0
    8.9283   -3.6215    3.1295 C   0  0  0  0  0  0
    7.9109   -3.0582    3.8996 C   0  0  0  0  0  0
    6.8614   -2.3796    3.2801 C   0  0  0  0  0  0
    7.9256   -3.1859    5.6200 Cl  0  0  0  0  0  0
    9.9665   -4.2887    3.7081 O   0  0  0  0  0  0
   10.1404   -5.6564    3.3442 C   0  0  0  0  0  0
   10.7495   -6.3902    4.4999 C   0  0  0  0  0  0
   12.1366   -6.4806    4.6156 C   0  0  0  0  0  0
   12.7036   -7.1650    5.6907 C   0  0  0  0  0  0
   11.8835   -7.7590    6.6501 C   0  0  0  0  0  0
   10.4963   -7.6686    6.5342 C   0  0  0  0  0  0
    9.9293   -6.9842    5.4590 C   0  0  0  0  0  0
    9.7082   -8.2388    7.4551 F   0  0  0  0  0  0
    3.3323  -11.1227   -0.1318 H   0  0  0  0  0  0
    3.2388  -12.3305   -1.4580 H   0  0  0  0  0  0
    1.7626  -11.4459   -0.9432 H   0  0  0  0  0  0
    1.2836   -8.9130   -1.5333 H   0  0  0  0  0  0
    2.7589   -8.4625   -0.6129 H   0  0  0  0  0  0
    3.5899   -7.2067   -2.5595 H   0  0  0  0  0  0
    2.1145   -7.6572   -3.4799 H   0  0  0  0  0  0
    0.7516   -6.5261   -1.8486 H   0  0  0  0  0  0
    3.0691   -4.9122   -2.8478 H   0  0  0  0  0  0
    1.5938   -5.3626   -3.7682 H   0  0  0  0  0  0
   -0.7461   -3.8921   -3.0171 H   0  0  0  0  0  0
   -0.8779   -1.6327   -1.4945 H   0  0  0  0  0  0
    0.0818   -0.0111    0.0247 H   0  0  0  0  0  0
    1.0455    1.5859    1.5318 H   0  0  0  0  0  0
    3.6384   -2.1277    0.0107 H   0  0  0  0  0  0
    5.0308    2.0980    3.5222 H   0  0  0  0  0  0
    2.8140    2.4403    2.8518 H   0  0  0  0  0  0
    7.8322   -2.7424    0.0367 H   0  0  0  0  0  0
    9.6861   -3.9420    1.1335 H   0  0  0  0  0  0
    6.0661   -1.9378    3.8768 H   0  0  0  0  0  0
    9.1634   -6.0968    3.0963 H   0  0  0  0  0  0
   10.8045   -5.7216    2.4697 H   0  0  0  0  0  0
   12.7839   -6.0208    3.8735 H   0  0  0  0  0  0
   13.7837   -7.2349    5.7813 H   0  0  0  0  0  0
   12.3238   -8.2925    7.4870 H   0  0  0  0  0  0
    8.8476   -6.9193    5.3771 H   0  0  0  0  0  0
    2.2269   -6.0756   -0.9283 H   0  0  0  0  0  0
  1  2  1  0  0  0
  1 41  1  0  0  0
  1 42  1  0  0  0
  1 43  1  0  0  0
  2  3  2  0  0  0
  2  4  2  0  0  0
  2  5  1  0  0  0
  5  6  1  0  0  0
  5 44  1  0  0  0
  5 45  1  0  0  0
  6  7  1  0  0  0
  6 46  1  0  0  0
  6 47  1  0  0  0
  7  8  1  0  0  0
  7 48  1  0  0  0
  7 67  1  0  0  0
  8  9  1  0  0  0
  8 49  1  0  0  0
  8 50  1  0  0  0
  9 13  1  0  0  0
  9 10  2  0  0  0
 10 11  1  0  0  0
 10 51  1  0  0  0
 11 12  2  0  0  0
 11 52  1  0  0  0
 12 13  1  0  0  0
 12 14  1  0  0  0
 14 19  2  0  0  0
 14 15  1  0  0  0
 15 53  1  0  0  0
 15 16  2  0  0  0
 16 54  1  0  0  0
 16 17  1  0  0  0
 17 18  2  0  0  0
 17 23  1  0  0  0
 18 20  1  0  0  0
 18 19  1  0  0  0
 19 55  1  0  0  0
 20 24  2  0  0  0
 20 21  1  0  0  0
 21 22  2  0  0  0
 22 23  1  0  0  0
 22 56  1  0  0  0
 23 57  1  0  0  0
 24 25  1  0  0  0
 25 30  2  0  0  0
 25 26  1  0  0  0
 26 27  2  0  0  0
 26 58  1  0  0  0
 27 28  1  0  0  0
 27 59  1  0  0  0
 28 29  2  0  0  0
 28 32  1  0  0  0
 29 30  1  0  0  0
 29 31  1  0  0  0
 30 60  1  0  0  0
 32 33  1  0  0  0
 33 34  1  0  0  0
 33 61  1  0  0  0
 33 62  1  0  0  0
 34 39  2  0  0  0
 34 35  1  0  0  0
 35 36  2  0  0  0
 35 63  1  0  0  0
 36 37  1  0  0  0
 36 64  1  0  0  0
 37 38  2  0  0  0
 37 65  1  0  0  0
 38 39  1  0  0  0
 38 40  1  0  0  0
 39 66  1  0  0  0
M  CHG  1   7   1
M  END
> <s_m_source_file>
/Users/andrea/Development/mcce-charges/epik_inhibitors/output/Lapatinib/Lapatinib-input.mol2

> <i_m_source_file_index>
1

> <r_lp_tautomer_probability>
9.99989000120999e-07

> <r_epik_Ionization_Penalty>
  8.1201

> <r_epik_Ionization_Penalty_Charging>
  8.1201

> <r_epik_Ionization_Penalty_Neutral>
  0.0000

> <r_epik_State_Penalty>
  8.6164

> <i_epik_Tot_Q>
1

$$$$
~{N}-[3-chloro-4-[(3-fluorophenyl)methoxy]phenyl]-6-[5-[(2-methylsulfonylethylamino)methyl]-2-furyl]quinazolin-4-amine
                    3D
 Structure written by MMmdl.
 66 70  0  0  1  0            999 V2000
    2.8503  -11.3698   -1.0891 C   0  0  0  0  0  0
    3.2007  -10.0950   -2.2748 S   0  0  0  0  0  0
    2.5506  -10.4556   -3.5196 O   0  0  0  0  0  0
    4.6239   -9.8224   -2.2261 O   0  0  0  0  0  0
    2.3584   -8.6923   -1.6113 C   0  0  0  0  0  0
    2.5222   -7.4583   -2.4777 C   0  0  0  0  0  0
    1.8259   -6.3035   -1.9269 N   0  0  0  0  0  0
    1.9983   -5.1506   -2.7675 C   0  0  0  0  0  0
    1.3040   -3.9709   -2.2320 C   0  0  0  0  0  0
    0.0348   -3.4687   -2.4016 C   0  0  0  0  0  0
   -0.0328   -2.2963   -1.6117 C   0  0  0  0  0  0
    1.1999   -2.1657   -1.0155 C   0  0  0  0  0  0
    2.0206   -3.1825   -1.3885 O   0  0  0  0  0  0
    1.7783   -1.2043   -0.1094 C   0  0  0  0  0  0
    1.0260   -0.1225    0.3346 C   0  0  0  0  0  0
    1.5879    0.8085    1.2133 C   0  0  0  0  0  0
    2.8996    0.6849    1.6651 C   0  0  0  0  0  0
    3.6493   -0.4117    1.2094 C   0  0  0  0  0  0
    3.0914   -1.3522    0.3260 C   0  0  0  0  0  0
    4.9553   -0.5014    1.6826 C   0  0  0  0  0  0
    5.5107    0.3871    2.5281 N   0  0  0  0  0  0
    4.7000    1.3924    2.8955 C   0  0  0  0  0  0
    3.4230    1.5905    2.5099 N   0  0  0  0  0  0
    5.7734   -1.5812    1.2667 N   0  0  0  0  0  0
    6.8294   -2.2643    1.8904 C   0  0  0  0  0  0
    7.8468   -2.8276    1.1202 C   0  0  0  0  0  0
    8.8963   -3.5062    1.7397 C   0  0  0  0  0  0
    8.9283   -3.6215    3.1295 C   0  0  0  0  0  0
    7.9109   -3.0582    3.8996 C   0  0  0  0  0  0
    6.8614   -2.3796    3.2801 C   0  0  0  0  0  0
    7.9256   -3.1859    5.6200 Cl  0  0  0  0  0  0
    9.9665   -4.2887    3.7081 O   0  0  0  0  0  0
   10.1404   -5.6564    3.3442 C   0  0  0  0  0  0
   10.7495   -6.3902    4.4999 C   0  0  0  0  0  0
   12.1366   -6.4806    4.6156 C   0  0  0  0  0  0
   12.7036   -7.1650    5.6907 C   0  0  0  0  0  0
   11.8835   -7.7590    6.6501 C   0  0  0  0  0  0
   10.4963   -7.6686    6.5342 C   0  0  0  0  0  0
    9.9293   -6.9842    5.4590 C   0  0  0  0  0  0
    9.7082   -8.2388    7.4551 F   0  0  0  0  0  0
    3.3323  -11.1227   -0.1318 H   0  0  0  0  0  0
    3.2388  -12.3305   -1.4580 H   0  0  0  0  0  0
    1.7626  -11.4459   -0.9432 H   0  0  0  0  0  0
    1.2836   -8.9130   -1.5333 H   0  0  0  0  0  0
    2.7589   -8.4625   -0.6129 H   0  0  0  0  0  0
    3.5899   -7.2067   -2.5595 H   0  0  0  0  0  0
    2.1145   -7.6572   -3.4799 H   0  0  0  0  0  0
    0.7516   -6.5261   -1.8486 H   0  0  0  0  0  0
    3.0691   -4.9122   -2.8478 H   0  0  0  0  0  0
    1.5938   -5.3626   -3.7682 H   0  0  0  0  0  0
   -0.7461   -3.8921   -3.0171 H   0  0  0  0  0  0
   -0.8779   -1.6327   -1.4945 H   0  0  0  0  0  0
    0.0818   -0.0111    0.0247 H   0  0  0  0  0  0
    1.0455    1.5859    1.5318 H   0  0  0  0  0  0
    3.6384   -2.1277    0.0107 H   0  0  0  0  0  0
    5.1383    2.0359    3.5230 H   0  0  0  0  0  0
    6.5389    0.3398    2.9162 H   0  0  0  0  0  0
    7.8322   -2.7424    0.0367 H   0  0  0  0  0  0
    9.6861   -3.9420    1.1335 H   0  0  0  0  0  0
    6.0661   -1.9378    3.8768 H   0  0  0  0  0  0
    9.1634   -6.0968    3.0963 H   0  0  0  0  0  0
   10.8045   -5.7216    2.4697 H   0  0  0  0  0  0
   12.7839   -6.0208    3.8735 H   0  0  0  0  0  0
   13.7837   -7.2349    5.7813 H   0  0  0  0  0  0
   12.3238   -8.2925    7.4870 H   0  0  0  0  0  0
    8.8476   -6.9193    5.3771 H   0  0  0  0  0  0
  1  2  1  0  0  0
  1 41  1  0  0  0
  1 42  1  0  0  0
  1 43  1  0  0  0
  2  3  2  0  0  0
  2  4  2  0  0  0
  2  5  1  0  0  0
  5  6  1  0  0  0
  5 44  1  0  0  0
  5 45  1  0  0  0
  6  7  1  0  0  0
  6 46  1  0  0  0
  6 47  1  0  0  0
  7  8  1  0  0  0
  7 48  1  0  0  0
  8  9  1  0  0  0
  8 49  1  0  0  0
  8 50  1  0  0  0
  9 13  1  0  0  0
  9 10  2  0  0  0
 10 11  1  0  0  0
 10 51  1  0  0  0
 11 12  2  0  0  0
 11 52  1  0  0  0
 12 13  1  0  0  0
 12 14  1  0  0  0
 14 19  2  0  0  0
 14 15  1  0  0  0
 15 53  1  0  0  0
 15 16  2  0  0  0
 16 54  1  0  0  0
 16 17  1  0  0  0
 17 18  2  0  0  0
 17 23  1  0  0  0
 18 20  1  0  0  0
 18 19  1  0  0  0
 19 55  1  0  0  0
 20 24  2  0  0  0
 20 21  1  0  0  0
 21 22  1  0  0  0
 21 57  1  0  0  0
 22 23  2  0  0  0
 22 56  1  0  0  0
 24 25  1  0  0  0
 25 30  2  0  0  0
 25 26  1  0  0  0
 26 27  2  0  0  0
 26 58  1  0  0  0
 27 28  1  0  0  0
 27 59  1  0  0  0
 28 29  2  0  0  0
 28 32  1  0  0  0
 29 30  1  0  0  0
 29 31  1  0  0  0
 30 60  1  0  0  0
 32 33  1  0  0  0
 33 34  1  0  0  0
 33 61  1  0  0  0
 33 62  1  0  0  0
 34 39  2  0  0  0
 34 35  1  0  0  0
 35 36  2  0  0  0
 35 63  1  0  0  0
 36 37  1  0  0  0
 36 64  1  0  0  0
 37 38  2  0  0  0
 37 65  1  0  0  0
 38 39  1  0  0  0
 38 40  1  0  0  0
 39 66  1  0  0  0
M  END
> <s_m_source_file>
/Users/andrea/Development/mcce-charges/epik_inhibitors/output/Lapatinib/Lapatinib-input.mol2

> <i_m_source_file_index>
1

> <r_lp_tautomer_probability>
9.99989000120999e-06

> <r_epik_Ionization_Penalty>
  7.4392

> <r_epik_Ionization_Penalty_Charging>
  5.7766

> <r_epik_Ionization_Penalty_Neutral>
  1.6626

> <r_epik_State_Penalty>
  9.0056

> <i_epik_Tot_Q>
0

$$$$
~{N}-[3-chloro-4-[(3-fluorophenyl)methoxy]phenyl]-6-[5-[(2-methylsulfonylethylamino)methyl]-2-furyl]quinazolin-4-amine
                    3D
 Structure written by MMmdl.
 66 70  0  0  1  0            999 V2000
    2.8503  -11.3698   -1.0891 C   0  0  0  0  0  0
    3.2007  -10.0950   -2.2748 S   0  0  0  0  0  0
    2.5506  -10.4556   -3.5196 O   0  0  0  0  0  0
    4.6239   -9.8224   -2.2261 O   0  0  0  0  0  0
    2.3584   -8.6923   -1.6113 C   0  0  0  0  0  0
    2.5222   -7.4583   -2.4777 C   0  0  0  0  0  0
    1.8259   -6.3035   -1.9269 N   0  0  0  0  0  0
    1.9983   -5.1506   -2.7675 C   0  0  0  0  0  0
    1.3040   -3.9709   -2.2320 C   0  0  0  0  0  0
    0.0348   -3.4687   -2.4016 C   0  0  0  0  0  0
   -0.0328   -2.2963   -1.6117 C   0  0  0  0  0  0
    1.1999   -2.1657   -1.0155 C   0  0  0  0  0  0
    2.0206   -3.1825   -1.3885 O   0  0  0  0  0  0
    1.7783   -1.2043   -0.1094 C   0  0  0  0  0  0
    1.0260   -0.1225    0.3346 C   0  0  0  0  0  0
    1.5879    0.8085    1.2133 C   0  0  0  0  0  0
    2.8996    0.6849    1.6651 C   0  0  0  0  0  0
    3.6493   -0.4117    1.2094 C   0  0  0  0  0  0
    3.0914   -1.3522    0.3260 C   0  0  0  0  0  0
    4.9553   -0.5014    1.6826 C   0  0  0  0  0  0
    5.5107    0.3871    2.5281 N   0  0  0  0  0  0
    4.7000    1.3924    2.8955 C   0  0  0  0  0  0
    3.4230    1.5905    2.5099 N   0  0  0  0  0  0
    5.7734   -1.5812    1.2667 N   0  0  0  0  0  0
    5.8110   -2.3415    0.0872 C   0  0  0  0  0  0
    6.2282   -3.6718    0.1280 C   0  0  0  0  0  0
    6.2653   -4.4275   -1.0438 C   0  0  0  0  0  0
    5.8852   -3.8527   -2.2566 C   0  0  0  0  0  0
    5.4679   -2.5224   -2.2975 C   0  0  0  0  0  0
    5.4309   -1.7667   -1.1256 C   0  0  0  0  0  0
    4.9925   -1.7865   -3.7837 Cl  0  0  0  0  0  0
    5.9300   -4.6149   -3.3858 O   0  0  0  0  0  0
    7.1986   -5.1510   -3.7551 C   0  0  0  0  0  0
    7.2495   -5.2884   -5.2463 C   0  0  0  0  0  0
    6.8273   -6.4716   -5.8525 C   0  0  0  0  0  0
    6.8761   -6.5999   -7.2406 C   0  0  0  0  0  0
    7.3470   -5.5451   -8.0225 C   0  0  0  0  0  0
    7.7694   -4.3620   -7.4161 C   0  0  0  0  0  0
    7.7206   -4.2336   -6.0280 C   0  0  0  0  0  0
    8.2218   -3.3487   -8.1664 F   0  0  0  0  0  0
    3.3323  -11.1227   -0.1318 H   0  0  0  0  0  0
    3.2388  -12.3305   -1.4580 H   0  0  0  0  0  0
    1.7626  -11.4459   -0.9432 H   0  0  0  0  0  0
    1.2836   -8.9130   -1.5333 H   0  0  0  0  0  0
    2.7589   -8.4625   -0.6129 H   0  0  0  0  0  0
    3.5899   -7.2067   -2.5595 H   0  0  0  0  0  0
    2.1145   -7.6572   -3.4799 H   0  0  0  0  0  0
    0.7516   -6.5261   -1.8486 H   0  0  0  0  0  0
    3.0691   -4.9122   -2.8478 H   0  0  0  0  0  0
    1.5938   -5.3626   -3.7682 H   0  0  0  0  0  0
   -0.7461   -3.8921   -3.0171 H   0  0  0  0  0  0
   -0.8779   -1.6327   -1.4945 H   0  0  0  0  0  0
    0.0818   -0.0111    0.0247 H   0  0  0  0  0  0
    1.0455    1.5859    1.5318 H   0  0  0  0  0  0
    3.6384   -2.1277    0.0107 H   0  0  0  0  0  0
    5.1383    2.0359    3.5230 H   0  0  0  0  0  0
    6.5389    0.3398    2.9162 H   0  0  0  0  0  0
    6.5253   -4.1298    1.0679 H   0  0  0  0  0  0
    6.5908   -5.4636   -1.0046 H   0  0  0  0  0  0
    5.1052   -0.7289   -1.1525 H   0  0  0  0  0  0
    7.9958   -4.4734   -3.4159 H   0  0  0  0  0  0
    7.3308   -6.1369   -3.2854 H   0  0  0  0  0  0
    6.4584   -7.2988   -5.2519 H   0  0  0  0  0  0
    6.5467   -7.5209   -7.7129 H   0  0  0  0  0  0
    7.3860   -5.6442   -9.1031 H   0  0  0  0  0  0
    8.0519   -3.3081   -5.5646 H   0  0  0  0  0  0
  1  2  1  0  0  0
  1 41  1  0  0  0
  1 42  1  0  0  0
  1 43  1  0  0  0
  2  3  2  0  0  0
  2  4  2  0  0  0
  2  5  1  0  0  0
  5  6  1  0  0  0
  5 44  1  0  0  0
  5 45  1  0  0  0
  6  7  1  0  0  0
  6 46  1  0  0  0
  6 47  1  0  0  0
  7  8  1  0  0  0
  7 48  1  0  0  0
  8  9  1  0  0  0
  8 49  1  0  0  0
  8 50  1  0  0  0
  9 13  1  0  0  0
  9 10  2  0  0  0
 10 11  1  0  0  0
 10 51  1  0  0  0
 11 12  2  0  0  0
 11 52  1  0  0  0
 12 13  1  0  0  0
 12 14  1  0  0  0
 14 19  2  0  0  0
 14 15  1  0  0  0
 15 53  1  0  0  0
 15 16  2  0  0  0
 16 54  1  0  0  0
 16 17  1  0  0  0
 17 18  2  0  0  0
 17 23  1  0  0  0
 18 20  1  0  0  0
 18 19  1  0  0  0
 19 55  1  0  0  0
 20 24  2  0  0  0
 20 21  1  0  0  0
 21 22  1  0  0  0
 21 57  1  0  0  0
 22 23  2  0  0  0
 22 56  1  0  0  0
 24 25  1  0  0  0
 25 30  2  0  0  0
 25 26  1  0  0  0
 26 27  2  0  0  0
 26 58  1  0  0  0
 27 28  1  0  0  0
 27 59  1  0  0  0
 28 29  2  0  0  0
 28 32  1  0  0  0
 29 30  1  0  0  0
 29 31  1  0  0  0
 30 60  1  0  0  0
 32 33  1  0  0  0
 33 34  1  0  0  0
 33 61  1  0  0  0
 33 62  1  0  0  0
 34 39  2  0  0  0
 34 35  1  0  0  0
 35 36  2  0  0  0
 35 63  1  0  0  0
 36 37  1  0  0  0
 36 64  1  0  0  0
 37 38  2  0  0  0
 37 65  1  0  0  0
 38 39  1  0  0  0
 38 40  1  0  0  0
 39 66  1  0  0  0
M  END
> <s_m_source_file>
/Users/andrea/Development/mcce-charges/epik_inhibitors/output/Lapatinib/Lapatinib-input.mol2

> <i_m_source_file_index>
1

> <r_lp_tautomer_probability>
9.99989000120999e-06

> <r_epik_Ionization_Penalty>
  7.4392

> <r_epik_Ionization_Penalty_Charging>
  5.7766

> <r_epik_Ionization_Penalty_Neutral>
  1.6626

> <r_epik_State_Penalty>
  9.0056

> <i_epik_Tot_Q>
0

$$$$
~{N}-[3-chloro-4-[(3-fluorophenyl)methoxy]phenyl]-6-[5-[(2-methylsulfonylethylamino)methyl]-2-furyl]quinazolin-4-amine
                    3D
 Structure written by MMmdl.
 66 70  0  0  1  0            999 V2000
    2.8503  -11.3698   -1.0891 C   0  0  0  0  0  0
    3.2007  -10.0950   -2.2748 S   0  0  0  0  0  0
    2.5506  -10.4556   -3.5196 O   0  0  0  0  0  0
    4.6239   -9.8224   -2.2261 O   0  0  0  0  0  0
    2.3584   -8.6923   -1.6113 C   0  0  0  0  0  0
    2.5222   -7.4583   -2.4777 C   0  0  0  0  0  0
    1.8259   -6.3035   -1.9269 N   0  0  0  0  0  0
    1.9983   -5.1506   -2.7675 C   0  0  0  0  0  0
    1.3040   -3.9709   -2.2320 C   0  0  0  0  0  0
    0.0348   -3.4687   -2.4016 C   0  0  0  0  0  0
   -0.0328   -2.2963   -1.6117 C   0  0  0  0  0  0
    1.1999   -2.1657   -1.0155 C   0  0  0  0  0  0
    2.0206   -3.1825   -1.3885 O   0  0  0  0  0  0
    1.7783   -1.2043   -0.1094 C   0  0  0  0  0  0
    1.0260   -0.1225    0.3346 C   0  0  0  0  0  0
    1.5879    0.8085    1.2133 C   0  0  0  0  0  0
    2.8996    0.6849    1.6651 C   0  0  0  0  0  0
    3.6493   -0.4117    1.2094 C   0  0  0  0  0  0
    3.0914   -1.3522    0.3260 C   0  0  0  0  0  0
    4.9553   -0.5014    1.6826 C   0  0  0  0  0  0
    5.5107    0.3871    2.5281 N   0  0  0  0  0  0
    4.7000    1.3924    2.8955 C   0  0  0  0  0  0
    3.4230    1.5905    2.5099 N   0  0  0  0  0  0
    5.7734   -1.5812    1.2667 N   0  0  0  0  0  0
    6.8294   -2.2643    1.8904 C   0  0  0  0  0  0
    7.8468   -2.8276    1.1202 C   0  0  0  0  0  0
    8.8963   -3.5062    1.7397 C   0  0  0  0  0  0
    8.9283   -3.6215    3.1295 C   0  0  0  0  0  0
    7.9109   -3.0582    3.8996 C   0  0  0  0  0  0
    6.8614   -2.3796    3.2801 C   0  0  0  0  0  0
    7.9256   -3.1859    5.6200 Cl  0  0  0  0  0  0
    9.9665   -4.2887    3.7081 O   0  0  0  0  0  0
   10.1404   -5.6564    3.3442 C   0  0  0  0  0  0
   10.7495   -6.3902    4.4999 C   0  0  0  0  0  0
   12.1366   -6.4806    4.6156 C   0  0  0  0  0  0
   12.7036   -7.1650    5.6907 C   0  0  0  0  0  0
   11.8835   -7.7590    6.6501 C   0  0  0  0  0  0
   10.4963   -7.6686    6.5342 C   0  0  0  0  0  0
    9.9293   -6.9842    5.4590 C   0  0  0  0  0  0
    9.7082   -8.2388    7.4551 F   0  0  0  0  0  0
    3.3323  -11.1227   -0.1318 H   0  0  0  0  0  0
    3.2388  -12.3305   -1.4580 H   0  0  0  0  0  0
    1.7626  -11.4459   -0.9432 H   0  0  0  0  0  0
    1.2836   -8.9130   -1.5333 H   0  0  0  0  0  0
    2.7589   -8.4625   -0.6129 H   0  0  0  0  0  0
    3.5899   -7.2067   -2.5595 H   0  0  0  0  0  0
    2.1145   -7.6572   -3.4799 H   0  0  0  0  0  0
    0.7516   -6.5261   -1.8486 H   0  0  0  0  0  0
    3.0691   -4.9122   -2.8478 H   0  0  0  0  0  0
    1.5938   -5.3626   -3.7682 H   0  0  0  0  0  0
   -0.7461   -3.8921   -3.0171 H   0  0  0  0  0  0
   -0.8779   -1.6327   -1.4945 H   0  0  0  0  0  0
    0.0818   -0.0111    0.0247 H   0  0  0  0  0  0
    1.0455    1.5859    1.5318 H   0  0  0  0  0  0
    3.6384   -2.1277    0.0107 H   0  0  0  0  0  0
    5.0308    2.0980    3.5222 H   0  0  0  0  0  0
    2.8140    2.4403    2.8518 H   0  0  0  0  0  0
    7.8322   -2.7424    0.0367 H   0  0  0  0  0  0
    9.6861   -3.9420    1.1335 H   0  0  0  0  0  0
    6.0661   -1.9378    3.8768 H   0  0  0  0  0  0
    9.1634   -6.0968    3.0963 H   0  0  0  0  0  0
   10.8045   -5.7216    2.4697 H   0  0  0  0  0  0
   12.7839   -6.0208    3.8735 H   0  0  0  0  0  0
   13.7837   -7.2349    5.7813 H   0  0  0  0  0  0
   12.3238   -8.2925    7.4870 H   0  0  0  0  0  0
    8.8476   -6.9193    5.3771 H   0  0  0  0  0  0
  1  2  1  0  0  0
  1 41  1  0  0  0
  1 42  1  0  0  0
  1 43  1  0  0  0
  2  3  2  0  0  0
  2  4  2  0  0  0
  2  5  1  0  0  0
  5  6  1  0  0  0
  5 44  1  0  0  0
  5 45  1  0  0  0
  6  7  1  0  0  0
  6 46  1  0  0  0
  6 47  1  0  0  0
  7  8  1  0  0  0
  7 48  1  0  0  0
  8  9  1  0  0  0
  8 49  1  0  0  0
  8 50  1  0  0  0
  9 13  1  0  0  0
  9 10  2  0  0  0
 10 11  1  0  0  0
 10 51  1  0  0  0
 11 12  2  0  0  0
 11 52  1  0  0  0
 12 13  1  0  0  0
 12 14  1  0  0  0
 14 19  2  0  0  0
 14 15  1  0  0  0
 15 53  1  0  0  0
 15 16  2  0  0  0
 16 54  1  0  0  0
 16 17  1  0  0  0
 17 18  2  0  0  0
 17 23  1  0  0  0
 18 20  1  0  0  0
 18 19  1  0  0  0
 19 55  1  0  0  0
 20 24  2  0  0  0
 20 21  1  0  0  0
 21 22  2  0  0  0
 22 23  1  0  0  0
 22 56  1  0  0  0
 23 57  1  0  0  0
 24 25  1  0  0  0
 25 30  2  0  0  0
 25 26  1  0  0  0
 26 27  2  0  0  0
 26 58  1  0  0  0
 27 28  1  0  0  0
 27 59  1  0  0  0
 28 29  2  0  0  0
 28 32  1  0  0  0
 29 30  1  0  0  0
 29 31  1  0  0  0
 30 60  1  0  0  0
 32 33  1  0  0  0
 33 34  1  0  0  0
 33 61  1  0  0  0
 33 62  1  0  0  0
 34 39  2  0  0  0
 34 35  1  0  0  0
 35 36  2  0  0  0
 35 63  1  0  0  0
 36 37  1  0  0  0
 36 64  1  0  0  0
 37 38  2  0  0  0
 37 65  1  0  0  0
 38 39  1  0  0  0
 38 40  1  0  0  0
 39 66  1  0  0  0
M  END
> <s_m_source_file>
/Users/andrea/Development/mcce-charges/epik_inhibitors/output/Lapatinib/Lapatinib-input.mol2

> <i_m_source_file_index>
1

> <r_lp_tautomer_probability>
9.99989000120999e-07

> <r_epik_Ionization_Penalty>
  9.7457

> <r_epik_Ionization_Penalty_Charging>
  8.0832

> <r_epik_Ionization_Penalty_Neutral>
  1.6626

> <r_epik_State_Penalty>
 10.3446

> <i_epik_Tot_Q>
0

$$$$
~{N}-[3-chloro-4-[(3-fluorophenyl)methoxy]phenyl]-6-[5-[(2-methylsulfonylethylamino)methyl]-2-furyl]quinazolin-4-amine
                    3D
 Structure written by MMmdl.
 66 70  0  0  1  0            999 V2000
    2.8503  -11.3698   -1.0891 C   0  0  0  0  0  0
    3.2007  -10.0950   -2.2748 S   0  0  0  0  0  0
    2.5506  -10.4556   -3.5196 O   0  0  0  0  0  0
    4.6239   -9.8224   -2.2261 O   0  0  0  0  0  0
    2.3584   -8.6923   -1.6113 C   0  0  0  0  0  0
    2.5222   -7.4583   -2.4777 C   0  0  0  0  0  0
    1.8259   -6.3035   -1.9269 N   0  0  0  0  0  0
    1.9983   -5.1506   -2.7675 C   0  0  0  0  0  0
    1.3040   -3.9709   -2.2320 C   0  0  0  0  0  0
    0.0348   -3.4687   -2.4016 C   0  0  0  0  0  0
   -0.0328   -2.2963   -1.6117 C   0  0  0  0  0  0
    1.1999   -2.1657   -1.0155 C   0  0  0  0  0  0
    2.0206   -3.1825   -1.3885 O   0  0  0  0  0  0
    1.7783   -1.2043   -0.1094 C   0  0  0  0  0  0
    1.0260   -0.1225    0.3346 C   0  0  0  0  0  0
    1.5879    0.8085    1.2133 C   0  0  0  0  0  0
    2.8996    0.6849    1.6651 C   0  0  0  0  0  0
    3.6493   -0.4117    1.2094 C   0  0  0  0  0  0
    3.0914   -1.3522    0.3260 C   0  0  0  0  0  0
    4.9553   -0.5014    1.6826 C   0  0  0  0  0  0
    5.5107    0.3871    2.5281 N   0  0  0  0  0  0
    4.7000    1.3924    2.8955 C   0  0  0  0  0  0
    3.4230    1.5905    2.5099 N   0  0  0  0  0  0
    5.7734   -1.5812    1.2667 N   0  0  0  0  0  0
    5.8110   -2.3415    0.0872 C   0  0  0  0  0  0
    6.2282   -3.6718    0.1280 C   0  0  0  0  0  0
    6.2653   -4.4275   -1.0438 C   0  0  0  0  0  0
    5.8852   -3.8527   -2.2566 C   0  0  0  0  0  0
    5.4679   -2.5224   -2.2975 C   0  0  0  0  0  0
    5.4309   -1.7667   -1.1256 C   0  0  0  0  0  0
    4.9925   -1.7865   -3.7837 Cl  0  0  0  0  0  0
    5.9300   -4.6149   -3.3858 O   0  0  0  0  0  0
    7.1986   -5.1510   -3.7551 C   0  0  0  0  0  0
    7.2495   -5.2884   -5.2463 C   0  0  0  0  0  0
    6.8273   -6.4716   -5.8525 C   0  0  0  0  0  0
    6.8761   -6.5999   -7.2406 C   0  0  0  0  0  0
    7.3470   -5.5451   -8.0225 C   0  0  0  0  0  0
    7.7694   -4.3620   -7.4161 C   0  0  0  0  0  0
    7.7206   -4.2336   -6.0280 C   0  0  0  0  0  0
    8.2218   -3.3487   -8.1664 F   0  0  0  0  0  0
    3.3323  -11.1227   -0.1318 H   0  0  0  0  0  0
    3.2388  -12.3305   -1.4580 H   0  0  0  0  0  0
    1.7626  -11.4459   -0.9432 H   0  0  0  0  0  0
    1.2836   -8.9130   -1.5333 H   0  0  0  0  0  0
    2.7589   -8.4625   -0.6129 H   0  0  0  0  0  0
    3.5899   -7.2067   -2.5595 H   0  0  0  0  0  0
    2.1145   -7.6572   -3.4799 H   0  0  0  0  0  0
    0.7516   -6.5261   -1.8486 H   0  0  0  0  0  0
    3.0691   -4.9122   -2.8478 H   0  0  0  0  0  0
    1.5938   -5.3626   -3.7682 H   0  0  0  0  0  0
   -0.7461   -3.8921   -3.0171 H   0  0  0  0  0  0
   -0.8779   -1.6327   -1.4945 H   0  0  0  0  0  0
    0.0818   -0.0111    0.0247 H   0  0  0  0  0  0
    1.0455    1.5859    1.5318 H   0  0  0  0  0  0
    3.6384   -2.1277    0.0107 H   0  0  0  0  0  0
    5.0308    2.0980    3.5222 H   0  0  0  0  0  0
    2.8140    2.4403    2.8518 H   0  0  0  0  0  0
    6.5253   -4.1298    1.0679 H   0  0  0  0  0  0
    6.5908   -5.4636   -1.0046 H   0  0  0  0  0  0
    5.1052   -0.7289   -1.1525 H   0  0  0  0  0  0
    7.9958   -4.4734   -3.4159 H   0  0  0  0  0  0
    7.3308   -6.1369   -3.2854 H   0  0  0  0  0  0
    6.4584   -7.2988   -5.2519 H   0  0  0  0  0  0
    6.5467   -7.5209   -7.7129 H   0  0  0  0  0  0
    7.3860   -5.6442   -9.1031 H   0  0  0  0  0  0
    8.0519   -3.3081   -5.5646 H   0  0  0  0  0  0
  1  2  1  0  0  0
  1 41  1  0  0  0
  1 42  1  0  0  0
  1 43  1  0  0  0
  2  3  2  0  0  0
  2  4  2  0  0  0
  2  5  1  0  0  0
  5  6  1  0  0  0
  5 44  1  0  0  0
  5 45  1  0  0  0
  6  7  1  0  0  0
  6 46  1  0  0  0
  6 47  1  0  0  0
  7  8  1  0  0  0
  7 48  1  0  0  0
  8  9  1  0  0  0
  8 49  1  0  0  0
  8 50  1  0  0  0
  9 13  1  0  0  0
  9 10  2  0  0  0
 10 11  1  0  0  0
 10 51  1  0  0  0
 11 12  2  0  0  0
 11 52  1  0  0  0
 12 13  1  0  0  0
 12 14  1  0  0  0
 14 19  2  0  0  0
 14 15  1  0  0  0
 15 53  1  0  0  0
 15 16  2  0  0  0
 16 54  1  0  0  0
 16 17  1  0  0  0
 17 18  2  0  0  0
 17 23  1  0  0  0
 18 20  1  0  0  0
 18 19  1  0  0  0
 19 55  1  0  0  0
 20 24  2  0  0  0
 20 21  1  0  0  0
 21 22  2  0  0  0
 22 23  1  0  0  0
 22 56  1  0  0  0
 23 57  1  0  0  0
 24 25  1  0  0  0
 25 30  2  0  0  0
 25 26  1  0  0  0
 26 27  2  0  0  0
 26 58  1  0  0  0
 27 28  1  0  0  0
 27 59  1  0  0  0
 28 29  2  0  0  0
 28 32  1  0  0  0
 29 30  1  0  0  0
 29 31  1  0  0  0
 30 60  1  0  0  0
 32 33  1  0  0  0
 33 34  1  0  0  0
 33 61  1  0  0  0
 33 62  1  0  0  0
 34 39  2  0  0  0
 34 35  1  0  0  0
 35 36  2  0  0  0
 35 63  1  0  0  0
 36 37  1  0  0  0
 36 64  1  0  0  0
 37 38  2  0  0  0
 37 65  1  0  0  0
 38 39  1  0  0  0
 38 40  1  0  0  0
 39 66  1  0  0  0
M  END
> <s_m_source_file>
/Users/andrea/Development/mcce-charges/epik_inhibitors/output/Lapatinib/Lapatinib-input.mol2

> <i_m_source_file_index>
1

> <r_lp_tautomer_probability>
9.99989000120999e-07

> <r_epik_Ionization_Penalty>
  9.7457

> <r_epik_Ionization_Penalty_Charging>
  8.0832

> <r_epik_Ionization_Penalty_Neutral>
  1.6626

> <r_epik_State_Penalty>
 10.3446

> <i_epik_Tot_Q>
0

$$$$
~{N}-[3-chloro-4-[(3-fluorophenyl)methoxy]phenyl]-6-[5-[(2-methylsulfonylethylamino)methyl]-2-furyl]quinazolin-4-amine
                    3D
 Structure written by MMmdl.
 68 72  0  0  1  0            999 V2000
    2.8506  -11.3702   -1.0877 C   0  0  0  0  0  0
    3.2008  -10.0955   -2.2736 S   0  0  0  0  0  0
    2.5505  -10.4562   -3.5182 O   0  0  0  0  0  0
    4.6239   -9.8228   -2.2251 O   0  0  0  0  0  0
    2.3585   -8.6927   -1.6101 C   0  0  0  0  0  0
    2.5220   -7.4588   -2.4767 C   0  0  0  0  0  0
    1.8258   -6.3040   -1.9259 N   0  3  0  0  0  0
    1.9979   -5.1512   -2.7666 C   0  0  0  0  0  0
    1.3037   -3.9715   -2.2312 C   0  0  0  0  0  0
    0.0344   -3.4694   -2.4006 C   0  0  0  0  0  0
   -0.0332   -2.2969   -1.6108 C   0  0  0  0  0  0
    1.1996   -2.1662   -1.0148 C   0  0  0  0  0  0
    2.0203   -3.1829   -1.3879 O   0  0  0  0  0  0
    1.7781   -1.2046   -0.1090 C   0  0  0  0  0  0
    1.0259   -0.1228    0.3350 C   0  0  0  0  0  0
    1.5879    0.8085    1.2132 C   0  0  0  0  0  0
    2.8996    0.6850    1.6650 C   0  0  0  0  0  0
    3.6493   -0.4117    1.2094 C   0  0  0  0  0  0
    3.0913   -1.3524    0.3263 C   0  0  0  0  0  0
    4.9553   -0.5013    1.6825 C   0  0  0  0  0  0
    5.5107    0.3871    2.5281 N   0  0  0  0  0  0
    4.7000    1.3925    2.8954 C   0  0  0  0  0  0
    3.4231    1.5906    2.5098 N   0  0  0  0  0  0
    5.7734   -1.5812    1.2667 N   0  3  0  0  0  0
    6.8294   -2.2643    1.8904 C   0  0  0  0  0  0
    7.8468   -2.8277    1.1203 C   0  0  0  0  0  0
    8.8963   -3.5062    1.7398 C   0  0  0  0  0  0
    8.9283   -3.6214    3.1296 C   0  0  0  0  0  0
    7.9109   -3.0580    3.8997 C   0  0  0  0  0  0
    6.8614   -2.3795    3.2801 C   0  0  0  0  0  0
    7.9256   -3.1856    5.6201 Cl  0  0  0  0  0  0
    9.9665   -4.2886    3.7083 O   0  0  0  0  0  0
   10.1403   -5.6563    3.3445 C   0  0  0  0  0  0
   10.7494   -6.3901    4.5002 C   0  0  0  0  0  0
   12.1365   -6.4805    4.6159 C   0  0  0  0  0  0
   12.7035   -7.1648    5.6911 C   0  0  0  0  0  0
   11.8834   -7.7587    6.6505 C   0  0  0  0  0  0
   10.4962   -7.6683    6.5346 C   0  0  0  0  0  0
    9.9292   -6.9840    5.4594 C   0  0  0  0  0  0
    9.7081   -8.2384    7.4556 F   0  0  0  0  0  0
    3.3327  -11.1229   -0.1304 H   0  0  0  0  0  0
    3.2392  -12.3309   -1.4565 H   0  0  0  0  0  0
    1.7630  -11.4463   -0.9416 H   0  0  0  0  0  0
    1.2837   -8.9135   -1.5319 H   0  0  0  0  0  0
    2.7591   -8.4628   -0.6118 H   0  0  0  0  0  0
    3.5897   -7.2072   -2.5587 H   0  0  0  0  0  0
    2.1142   -7.6578   -3.4788 H   0  0  0  0  0  0
    0.7514   -6.5267   -1.8474 H   0  0  0  0  0  0
    3.0687   -4.9127   -2.8471 H   0  0  0  0  0  0
    1.5933   -5.3634   -3.7672 H   0  0  0  0  0  0
   -0.7466   -3.8929   -3.0159 H   0  0  0  0  0  0
   -0.8783   -1.6333   -1.4936 H   0  0  0  0  0  0
   -0.0025    0.0142    0.0088 H   0  0  0  0  0  0
    0.9780    1.6463    1.5460 H   0  0  0  0  0  0
    3.6726   -2.2021   -0.0265 H   0  0  0  0  0  0
    5.1159    2.1256    3.5759 H   0  0  0  0  0  0
    5.1445   -2.4606    1.0636 H   0  0  0  0  0  0
    7.8322   -2.7426    0.0368 H   0  0  0  0  0  0
    9.6860   -3.9421    1.1337 H   0  0  0  0  0  0
    6.0661   -1.9376    3.8768 H   0  0  0  0  0  0
    9.1633   -6.0968    3.0967 H   0  0  0  0  0  0
   10.8044   -5.7216    2.4700 H   0  0  0  0  0  0
   12.7838   -6.0208    3.8738 H   0  0  0  0  0  0
   13.7836   -7.2347    5.7817 H   0  0  0  0  0  0
   12.3237   -8.2922    7.4875 H   0  0  0  0  0  0
    8.8475   -6.9190    5.3775 H   0  0  0  0  0  0
    2.2269   -6.0760   -0.9273 H   0  0  0  0  0  0
    6.3159   -1.2993    0.3522 H   0  0  0  0  0  0
  1  2  1  0  0  0
  1 41  1  0  0  0
  1 42  1  0  0  0
  1 43  1  0  0  0
  2  3  2  0  0  0
  2  4  2  0  0  0
  2  5  1  0  0  0
  5  6  1  0  0  0
  5 44  1  0  0  0
  5 45  1  0  0  0
  6  7  1  0  0  0
  6 46  1  0  0  0
  6 47  1  0  0  0
  7  8  1  0  0  0
  7 48  1  0  0  0
  7 67  1  0  0  0
  8  9  1  0  0  0
  8 49  1  0  0  0
  8 50  1  0  0  0
  9 13  1  0  0  0
  9 10  2  0  0  0
 10 11  1  0  0  0
 10 51  1  0  0  0
 11 12  2  0  0  0
 11 52  1  0  0  0
 12 13  1  0  0  0
 12 14  1  0  0  0
 14 19  2  0  0  0
 14 15  1  0  0  0
 15 16  2  0  0  0
 15 53  1  0  0  0
 16 17  1  0  0  0
 16 54  1  0  0  0
 17 23  1  0  0  0
 17 18  2  0  0  0
 18 19  1  0  0  0
 18 20  1  0  0  0
 19 55  1  0  0  0
 20 21  2  0  0  0
 20 24  1  0  0  0
 21 22  1  0  0  0
 22 23  2  0  0  0
 22 56  1  0  0  0
 24 25  1  0  0  0
 24 57  1  0  0  0
 24 68  1  0  0  0
 25 30  2  0  0  0
 25 26  1  0  0  0
 26 27  2  0  0  0
 26 58  1  0  0  0
 27 28  1  0  0  0
 27 59  1  0  0  0
 28 29  2  0  0  0
 28 32  1  0  0  0
 29 30  1  0  0  0
 29 31  1  0  0  0
 30 60  1  0  0  0
 32 33  1  0  0  0
 33 34  1  0  0  0
 33 61  1  0  0  0
 33 62  1  0  0  0
 34 39  2  0  0  0
 34 35  1  0  0  0
 35 36  2  0  0  0
 35 63  1  0  0  0
 36 37  1  0  0  0
 36 64  1  0  0  0
 37 38  2  0  0  0
 37 65  1  0  0  0
 38 39  1  0  0  0
 38 40  1  0  0  0
 39 66  1  0  0  0
M  CHG  2   7   1  24   1
M  END
> <s_m_source_file>
/Users/andrea/Development/mcce-charges/epik_inhibitors/output/Lapatinib/Lapatinib-input.mol2

> <i_m_source_file_index>
1

> <r_epik_Ionization_Penalty>
 10.6487

> <r_epik_Ionization_Penalty_Charging>
 10.6487

> <r_epik_Ionization_Penalty_Neutral>
  0.0000

> <r_epik_State_Penalty>
 12.4538

> <i_epik_Tot_Q>
2

$$$$
