1-[(3~{R})-3-[4-amino-3-(4-phenoxyphenyl)pyrazolo[3,4-d]pyrimidin-1-yl]-1-piperidyl]prop-2-en-1-one
                    3D
 Structure written by MMmdl.
 57 61  0  0  1  0            999 V2000
   -0.6559    3.7168   -1.2104 C   0  0  0  0  0  0
   -0.2042    2.5907   -0.6542 C   0  0  0  0  0  0
   -1.0672    1.3929   -0.6671 C   0  0  0  0  0  0
   -2.2866    1.5686   -0.6480 O   0  0  0  0  0  0
   -0.4468    0.1476   -0.6935 N   0  0  0  0  0  0
   -1.2672   -1.0653   -0.7164 C   0  0  0  0  0  0
   -0.9264   -1.9628    0.4715 C   0  0  0  0  0  0
    0.5725   -2.2681    0.5290 C   0  0  0  0  0  0
    1.4045   -0.9701    0.4931 C   0  0  2  0  0  0
    1.2012   -0.3970    1.4097 H   0  0  0  0  0  0
    1.0013   -0.1098   -0.7169 C   0  0  0  0  0  0
    2.8944   -1.2506    0.5186 N   0  0  0  0  0  0
    3.7893   -0.8338    1.4587 C   0  0  0  0  0  0
    5.0191   -1.3285    1.0613 C   0  0  0  0  0  0
    4.7431   -2.0260   -0.1295 C   0  0  0  0  0  0
    3.4493   -1.9820   -0.4657 N   0  0  0  0  0  0
    5.6758   -2.7400   -0.9645 C   0  0  0  0  0  0
    6.3284   -2.0787   -2.0049 C   0  0  0  0  0  0
    7.2314   -2.7697   -2.8128 C   0  0  0  0  0  0
    7.4817   -4.1221   -2.5804 C   0  0  0  0  0  0
    6.8291   -4.7834   -1.5400 C   0  0  0  0  0  0
    5.9261   -4.0924   -0.7321 C   0  0  0  0  0  0
    8.3628   -4.7963   -3.3689 O   0  0  0  0  0  0
    9.2800   -5.6258   -2.7458 C   0  0  0  0  0  0
    9.5197   -6.9040   -3.2503 C   0  0  0  0  0  0
   10.4437   -7.7395   -2.6229 C   0  0  0  0  0  0
   11.1281   -7.2969   -1.4909 C   0  0  0  0  0  0
   10.8884   -6.0187   -0.9864 C   0  0  0  0  0  0
    9.9644   -5.1832   -1.6138 C   0  0  0  0  0  0
    6.1109   -1.0336    1.8709 C   0  0  0  0  0  0
    5.9213   -0.2905    2.9875 N   0  0  0  0  0  0
    4.6606    0.1272    3.2531 C   0  0  0  0  0  0
    3.5299   -0.0942    2.5485 N   0  0  0  0  0  0
    7.4018   -1.4924    1.5521 N   0  0  0  0  0  0
   -0.0282    4.6201   -1.2111 H   0  0  0  0  0  0
   -1.6559    3.7415   -1.6681 H   0  0  0  0  0  0
    0.7958    2.5660   -0.1965 H   0  0  0  0  0  0
   -2.3308   -0.7896   -0.6629 H   0  0  0  0  0  0
   -1.0782   -1.6183   -1.6483 H   0  0  0  0  0  0
   -1.2163   -1.4600    1.4059 H   0  0  0  0  0  0
   -1.4730   -2.9132    0.3817 H   0  0  0  0  0  0
    0.8014   -2.8073    1.4600 H   0  0  0  0  0  0
    0.8533   -2.8903   -0.3336 H   0  0  0  0  0  0
    1.2640   -0.6428   -1.6426 H   0  0  0  0  0  0
    1.5443    0.8460   -0.6774 H   0  0  0  0  0  0
    6.1437   -1.0248   -2.1993 H   0  0  0  0  0  0
    7.7374   -2.2491   -3.6212 H   0  0  0  0  0  0
    7.0195   -5.8371   -1.3543 H   0  0  0  0  0  0
    5.4260   -4.6219    0.0754 H   0  0  0  0  0  0
    8.9903   -7.2540   -4.1322 H   0  0  0  0  0  0
   10.6311   -8.7344   -3.0161 H   0  0  0  0  0  0
   11.8487   -7.9466   -1.0032 H   0  0  0  0  0  0
   11.4221   -5.6740   -0.1053 H   0  0  0  0  0  0
    9.7819   -4.1886   -1.2161 H   0  0  0  0  0  0
    4.5436    0.7181    4.1553 H   0  0  0  0  0  0
    8.2503   -1.2466    2.2075 H   0  0  0  0  0  0
    7.5628   -2.0970    0.6474 H   0  0  0  0  0  0
  1  2  2  0  0  0
  1 35  1  0  0  0
  1 36  1  0  0  0
  2  3  1  0  0  0
  2 37  1  0  0  0
  3  4  2  0  0  0
  3  5  1  0  0  0
  5 11  1  0  0  0
  5  6  1  0  0  0
  6  7  1  0  0  0
  6 38  1  0  0  0
  6 39  1  0  0  0
  7  8  1  0  0  0
  7 40  1  0  0  0
  7 41  1  0  0  0
  8  9  1  0  0  0
  8 42  1  0  0  0
  8 43  1  0  0  0
  9 10  1  0  0  0
  9 11  1  0  0  0
  9 12  1  0  0  0
 11 44  1  0  0  0
 11 45  1  0  0  0
 12 16  1  0  0  0
 12 13  1  0  0  0
 13 33  2  0  0  0
 13 14  1  0  0  0
 14 15  1  0  0  0
 14 30  2  0  0  0
 15 16  2  0  0  0
 15 17  1  0  0  0
 17 22  2  0  0  0
 17 18  1  0  0  0
 18 19  2  0  0  0
 18 46  1  0  0  0
 19 20  1  0  0  0
 19 47  1  0  0  0
 20 21  2  0  0  0
 20 23  1  0  0  0
 21 22  1  0  0  0
 21 48  1  0  0  0
 22 49  1  0  0  0
 23 24  1  0  0  0
 24 29  2  0  0  0
 24 25  1  0  0  0
 25 26  2  0  0  0
 25 50  1  0  0  0
 26 27  1  0  0  0
 26 51  1  0  0  0
 27 28  2  0  0  0
 27 52  1  0  0  0
 28 29  1  0  0  0
 28 53  1  0  0  0
 29 54  1  0  0  0
 30 31  1  0  0  0
 30 34  1  0  0  0
 31 32  2  0  0  0
 32 33  1  0  0  0
 32 55  1  0  0  0
 34 56  1  0  0  0
 34 57  1  0  0  0
M  END
> <s_m_source_file>
/cbio/jclab/home/andrrizzi/epik_inhibitors/output/Ibrutinib/Ibrutinib-input.mol2

> <i_m_source_file_index>
1

> <r_lp_tautomer_probability>
1

> <r_epik_Ionization_Penalty>
  0.0509

> <r_epik_Ionization_Penalty_Charging>
  0.0000

> <r_epik_Ionization_Penalty_Neutral>
  0.0509

> <r_epik_State_Penalty>
  0.0434

> <i_epik_Tot_Q>
0

$$$$
1-[(3~{R})-3-[4-amino-3-(4-phenoxyphenyl)pyrazolo[3,4-d]pyrimidin-1-yl]-1-piperidyl]prop-2-en-1-one
                    3D
 Structure written by MMmdl.
 58 62  0  0  1  0            999 V2000
   -0.6559    3.7168   -1.2104 C   0  0  0  0  0  0
   -0.2042    2.5907   -0.6542 C   0  0  0  0  0  0
   -1.0672    1.3929   -0.6671 C   0  0  0  0  0  0
   -2.2866    1.5686   -0.6480 O   0  0  0  0  0  0
   -0.4468    0.1476   -0.6935 N   0  0  0  0  0  0
   -1.2672   -1.0653   -0.7164 C   0  0  0  0  0  0
   -0.9264   -1.9628    0.4715 C   0  0  0  0  0  0
    0.5725   -2.2681    0.5290 C   0  0  0  0  0  0
    1.4045   -0.9701    0.4931 C   0  0  2  0  0  0
    1.2012   -0.3970    1.4097 H   0  0  0  0  0  0
    1.0013   -0.1098   -0.7169 C   0  0  0  0  0  0
    2.8944   -1.2506    0.5186 N   0  0  0  0  0  0
    3.7893   -0.8338    1.4587 C   0  0  0  0  0  0
    5.0191   -1.3285    1.0613 C   0  0  0  0  0  0
    4.7431   -2.0260   -0.1295 C   0  0  0  0  0  0
    3.4493   -1.9820   -0.4657 N   0  0  0  0  0  0
    5.6758   -2.7400   -0.9645 C   0  0  0  0  0  0
    6.3284   -2.0787   -2.0049 C   0  0  0  0  0  0
    7.2314   -2.7697   -2.8128 C   0  0  0  0  0  0
    7.4817   -4.1221   -2.5804 C   0  0  0  0  0  0
    6.8291   -4.7834   -1.5400 C   0  0  0  0  0  0
    5.9261   -4.0924   -0.7321 C   0  0  0  0  0  0
    8.3628   -4.7963   -3.3689 O   0  0  0  0  0  0
    9.2800   -5.6258   -2.7458 C   0  0  0  0  0  0
    9.5197   -6.9040   -3.2503 C   0  0  0  0  0  0
   10.4437   -7.7395   -2.6229 C   0  0  0  0  0  0
   11.1281   -7.2969   -1.4909 C   0  0  0  0  0  0
   10.8884   -6.0187   -0.9864 C   0  0  0  0  0  0
    9.9644   -5.1832   -1.6138 C   0  0  0  0  0  0
    6.1109   -1.0336    1.8709 C   0  0  0  0  0  0
    5.9213   -0.2905    2.9875 N   0  0  0  0  0  0
    4.6606    0.1272    3.2531 C   0  0  0  0  0  0
    3.5299   -0.0942    2.5485 N   0  3  0  0  0  0
    7.4018   -1.4924    1.5521 N   0  0  0  0  0  0
   -0.0282    4.6201   -1.2111 H   0  0  0  0  0  0
   -1.6559    3.7415   -1.6681 H   0  0  0  0  0  0
    0.7958    2.5660   -0.1965 H   0  0  0  0  0  0
   -2.3308   -0.7896   -0.6629 H   0  0  0  0  0  0
   -1.0782   -1.6183   -1.6483 H   0  0  0  0  0  0
   -1.2163   -1.4600    1.4059 H   0  0  0  0  0  0
   -1.4730   -2.9132    0.3817 H   0  0  0  0  0  0
    0.8014   -2.8073    1.4600 H   0  0  0  0  0  0
    0.8533   -2.8903   -0.3336 H   0  0  0  0  0  0
    1.2640   -0.6428   -1.6426 H   0  0  0  0  0  0
    1.5443    0.8460   -0.6774 H   0  0  0  0  0  0
    6.1437   -1.0248   -2.1993 H   0  0  0  0  0  0
    7.7374   -2.2491   -3.6212 H   0  0  0  0  0  0
    7.0195   -5.8371   -1.3543 H   0  0  0  0  0  0
    5.4260   -4.6219    0.0754 H   0  0  0  0  0  0
    8.9903   -7.2540   -4.1322 H   0  0  0  0  0  0
   10.6311   -8.7344   -3.0161 H   0  0  0  0  0  0
   11.8487   -7.9466   -1.0032 H   0  0  0  0  0  0
   11.4221   -5.6740   -0.1053 H   0  0  0  0  0  0
    9.7819   -4.1886   -1.2161 H   0  0  0  0  0  0
    4.5436    0.7181    4.1553 H   0  0  0  0  0  0
    8.2503   -1.2466    2.2075 H   0  0  0  0  0  0
    7.5628   -2.0970    0.6474 H   0  0  0  0  0  0
    2.5022    0.2394    2.7549 H   0  0  0  0  0  0
  1  2  2  0  0  0
  1 35  1  0  0  0
  1 36  1  0  0  0
  2  3  1  0  0  0
  2 37  1  0  0  0
  3  4  2  0  0  0
  3  5  1  0  0  0
  5 11  1  0  0  0
  5  6  1  0  0  0
  6  7  1  0  0  0
  6 38  1  0  0  0
  6 39  1  0  0  0
  7  8  1  0  0  0
  7 40  1  0  0  0
  7 41  1  0  0  0
  8  9  1  0  0  0
  8 42  1  0  0  0
  8 43  1  0  0  0
  9 10  1  0  0  0
  9 11  1  0  0  0
  9 12  1  0  0  0
 11 44  1  0  0  0
 11 45  1  0  0  0
 12 16  1  0  0  0
 12 13  1  0  0  0
 13 33  2  0  0  0
 13 14  1  0  0  0
 14 15  1  0  0  0
 14 30  2  0  0  0
 15 16  2  0  0  0
 15 17  1  0  0  0
 17 22  2  0  0  0
 17 18  1  0  0  0
 18 19  2  0  0  0
 18 46  1  0  0  0
 19 20  1  0  0  0
 19 47  1  0  0  0
 20 21  2  0  0  0
 20 23  1  0  0  0
 21 22  1  0  0  0
 21 48  1  0  0  0
 22 49  1  0  0  0
 23 24  1  0  0  0
 24 29  2  0  0  0
 24 25  1  0  0  0
 25 26  2  0  0  0
 25 50  1  0  0  0
 26 27  1  0  0  0
 26 51  1  0  0  0
 27 28  2  0  0  0
 27 52  1  0  0  0
 28 29  1  0  0  0
 28 53  1  0  0  0
 29 54  1  0  0  0
 30 31  1  0  0  0
 30 34  1  0  0  0
 31 32  2  0  0  0
 32 33  1  0  0  0
 32 55  1  0  0  0
 33 58  1  0  0  0
 34 56  1  0  0  0
 34 57  1  0  0  0
M  CHG  1  33   1
M  END
> <s_m_source_file>
/cbio/jclab/home/andrrizzi/epik_inhibitors/output/Ibrutinib/Ibrutinib-input.mol2

> <i_m_source_file_index>
1

> <r_lp_tautomer_probability>
1

> <r_epik_Ionization_Penalty>
  1.4842

> <r_epik_Ionization_Penalty_Charging>
  1.4820

> <r_epik_Ionization_Penalty_Neutral>
  0.0022

> <r_epik_State_Penalty>
  1.5707

> <i_epik_Tot_Q>
1

$$$$
