1-[(3~{R})-3-[4-amino-3-(4-phenoxyphenyl)pyrazolo[3,4-d]pyrimidin-1-yl]-1-piperidyl]prop-2-en-1-one
                    3D
 Structure written by MMmdl.
 57 61  0  0  1  0            999 V2000
   -0.6639    3.6948   -1.2576 C   0  0  0  0  0  0
   -0.2068    2.5735   -0.6963 C   0  0  0  0  0  0
   -1.0751    1.3796   -0.6784 C   0  0  0  0  0  0
   -2.2932    1.5610   -0.6386 O   0  0  0  0  0  0
   -0.4607    0.1313   -0.7010 N   0  0  0  0  0  0
   -1.2864   -1.0783   -0.6907 C   0  0  0  0  0  0
   -0.9264   -1.9593    0.5039 C   0  0  0  0  0  0
    0.5722   -2.2697    0.5383 C   0  0  0  0  0  0
    1.4080   -0.9758    0.4672 C   0  0  2  0  0  0
    1.2239   -0.3859    1.3772 H   0  0  0  0  0  0
    0.9856   -0.1329   -0.7484 C   0  0  0  0  0  0
    2.8968   -1.2639    0.4716 N   0  0  0  0  0  0
    3.8099   -0.8372    1.3894 C   0  0  0  0  0  0
    5.0300   -1.3448    0.9787 C   0  0  0  0  0  0
    4.7299   -2.0597   -0.1958 C   0  0  0  0  0  0
    3.4307   -2.0140   -0.5103 N   0  0  0  0  0  0
    5.6443   -2.7920   -1.0352 C   0  0  0  0  0  0
    6.2822   -2.1508   -2.0971 C   0  0  0  0  0  0
    7.1675   -2.8596   -2.9093 C   0  0  0  0  0  0
    7.4148   -4.2094   -2.6596 C   0  0  0  0  0  0
    6.7768   -4.8506   -1.5977 C   0  0  0  0  0  0
    5.8916   -4.1418   -0.7855 C   0  0  0  0  0  0
    8.2786   -4.9009   -3.4523 O   0  0  0  0  0  0
    9.2022   -5.7253   -2.8318 C   0  0  0  0  0  0
    9.4264   -7.0127   -3.3198 C   0  0  0  0  0  0
   10.3568   -7.8432   -2.6951 C   0  0  0  0  0  0
   11.0630   -7.3863   -1.5823 C   0  0  0  0  0  0
   10.8387   -6.0989   -1.0943 C   0  0  0  0  0  0
    9.9083   -5.2685   -1.7191 C   0  0  0  0  0  0
    6.1372   -1.0430    1.7646 C   0  0  0  0  0  0
    5.9709   -0.2811    2.8723 N   0  0  0  0  0  0
    4.7171    0.1476    3.1528 C   0  0  0  0  0  0
    3.5732   -0.0788    2.4715 N   0  0  0  0  0  0
    7.4200   -1.5139    1.4310 N   0  0  0  0  0  0
   -0.0324    4.5952   -1.2811 H   0  0  0  0  0  0
   -1.6722    3.7186   -1.6968 H   0  0  0  0  0  0
    0.8015    2.5497   -0.2571 H   0  0  0  0  0  0
   -2.3476   -0.7972   -0.6213 H   0  0  0  0  0  0
   -1.1172   -1.6457   -1.6178 H   0  0  0  0  0  0
   -1.1968   -1.4416    1.4360 H   0  0  0  0  0  0
   -1.4779   -2.9088    0.4386 H   0  0  0  0  0  0
    0.8163   -2.7957    1.4731 H   0  0  0  0  0  0
    0.8347   -2.9060   -0.3197 H   0  0  0  0  0  0
    1.2281   -0.6816   -1.6704 H   0  0  0  0  0  0
    1.5333    0.8210   -0.7346 H   0  0  0  0  0  0
    6.0997   -1.0992   -2.3052 H   0  0  0  0  0  0
    7.6621   -2.3547   -3.7345 H   0  0  0  0  0  0
    6.9650   -5.9021   -1.3984 H   0  0  0  0  0  0
    5.4028   -4.6557    0.0389 H   0  0  0  0  0  0
    8.8800   -7.3739   -4.1868 H   0  0  0  0  0  0
   10.5322   -8.8452   -3.0755 H   0  0  0  0  0  0
   11.7886   -8.0321   -1.0968 H   0  0  0  0  0  0
   11.3893   -5.7432   -0.2281 H   0  0  0  0  0  0
    9.7378   -4.2668   -1.3342 H   0  0  0  0  0  0
    4.6188    0.7534    4.0473 H   0  0  0  0  0  0
    8.2810   -1.2624    2.0677 H   0  0  0  0  0  0
    7.5622   -2.1337    0.5334 H   0  0  0  0  0  0
  1  2  2  0  0  0
  1 35  1  0  0  0
  1 36  1  0  0  0
  2  3  1  0  0  0
  2 37  1  0  0  0
  3  4  2  0  0  0
  3  5  1  0  0  0
  5 11  1  0  0  0
  5  6  1  0  0  0
  6  7  1  0  0  0
  6 38  1  0  0  0
  6 39  1  0  0  0
  7  8  1  0  0  0
  7 40  1  0  0  0
  7 41  1  0  0  0
  8  9  1  0  0  0
  8 42  1  0  0  0
  8 43  1  0  0  0
  9 10  1  0  0  0
  9 11  1  0  0  0
  9 12  1  0  0  0
 11 44  1  0  0  0
 11 45  1  0  0  0
 12 16  1  0  0  0
 12 13  1  0  0  0
 13 33  2  0  0  0
 13 14  1  0  0  0
 14 15  1  0  0  0
 14 30  2  0  0  0
 15 16  2  0  0  0
 15 17  1  0  0  0
 17 22  2  0  0  0
 17 18  1  0  0  0
 18 19  2  0  0  0
 18 46  1  0  0  0
 19 20  1  0  0  0
 19 47  1  0  0  0
 20 21  2  0  0  0
 20 23  1  0  0  0
 21 22  1  0  0  0
 21 48  1  0  0  0
 22 49  1  0  0  0
 23 24  1  0  0  0
 24 29  2  0  0  0
 24 25  1  0  0  0
 25 26  2  0  0  0
 25 50  1  0  0  0
 26 27  1  0  0  0
 26 51  1  0  0  0
 27 28  2  0  0  0
 27 52  1  0  0  0
 28 29  1  0  0  0
 28 53  1  0  0  0
 29 54  1  0  0  0
 30 31  1  0  0  0
 30 34  1  0  0  0
 31 32  2  0  0  0
 32 33  1  0  0  0
 32 55  1  0  0  0
 34 56  1  0  0  0
 34 57  1  0  0  0
M  END
> <s_m_source_file>
/Users/andrea/Development/mcce-charges/epik_inhibitors/output/Ibrutinib/Ibrutinib-input.mol2

> <i_m_source_file_index>
1

> <r_lp_tautomer_probability>
1

> <r_epik_Ionization_Penalty>
  0.0509

> <r_epik_Ionization_Penalty_Charging>
  0.0000

> <r_epik_Ionization_Penalty_Neutral>
  0.0509

> <r_epik_State_Penalty>
  0.0002

> <i_epik_Tot_Q>
0

$$$$
1-[(3~{R})-3-[4-amino-3-(4-phenoxyphenyl)pyrazolo[3,4-d]pyrimidin-1-yl]-1-piperidyl]prop-2-en-1-one
                    3D
 Structure written by MMmdl.
 58 62  0  0  1  0            999 V2000
   -0.6639    3.6948   -1.2576 C   0  0  0  0  0  0
   -0.2068    2.5735   -0.6963 C   0  0  0  0  0  0
   -1.0751    1.3796   -0.6784 C   0  0  0  0  0  0
   -2.2932    1.5610   -0.6386 O   0  0  0  0  0  0
   -0.4607    0.1313   -0.7010 N   0  0  0  0  0  0
   -1.2864   -1.0783   -0.6907 C   0  0  0  0  0  0
   -0.9264   -1.9593    0.5039 C   0  0  0  0  0  0
    0.5722   -2.2697    0.5383 C   0  0  0  0  0  0
    1.4080   -0.9758    0.4672 C   0  0  2  0  0  0
    1.2239   -0.3859    1.3772 H   0  0  0  0  0  0
    0.9856   -0.1329   -0.7484 C   0  0  0  0  0  0
    2.8968   -1.2639    0.4716 N   0  0  0  0  0  0
    3.8099   -0.8372    1.3894 C   0  0  0  0  0  0
    5.0300   -1.3448    0.9787 C   0  0  0  0  0  0
    4.7299   -2.0597   -0.1958 C   0  0  0  0  0  0
    3.4307   -2.0140   -0.5103 N   0  0  0  0  0  0
    5.6443   -2.7920   -1.0352 C   0  0  0  0  0  0
    6.2822   -2.1508   -2.0971 C   0  0  0  0  0  0
    7.1675   -2.8596   -2.9093 C   0  0  0  0  0  0
    7.4148   -4.2094   -2.6596 C   0  0  0  0  0  0
    6.7768   -4.8506   -1.5977 C   0  0  0  0  0  0
    5.8916   -4.1418   -0.7855 C   0  0  0  0  0  0
    8.2786   -4.9009   -3.4523 O   0  0  0  0  0  0
    9.2022   -5.7253   -2.8318 C   0  0  0  0  0  0
    9.4264   -7.0127   -3.3198 C   0  0  0  0  0  0
   10.3568   -7.8432   -2.6951 C   0  0  0  0  0  0
   11.0630   -7.3863   -1.5823 C   0  0  0  0  0  0
   10.8387   -6.0989   -1.0943 C   0  0  0  0  0  0
    9.9083   -5.2685   -1.7191 C   0  0  0  0  0  0
    6.1372   -1.0430    1.7646 C   0  0  0  0  0  0
    5.9709   -0.2811    2.8723 N   0  0  0  0  0  0
    4.7171    0.1476    3.1528 C   0  0  0  0  0  0
    3.5732   -0.0788    2.4715 N   0  3  0  0  0  0
    7.4200   -1.5139    1.4310 N   0  0  0  0  0  0
   -0.0324    4.5952   -1.2811 H   0  0  0  0  0  0
   -1.6722    3.7186   -1.6968 H   0  0  0  0  0  0
    0.8015    2.5497   -0.2571 H   0  0  0  0  0  0
   -2.3476   -0.7972   -0.6213 H   0  0  0  0  0  0
   -1.1172   -1.6457   -1.6178 H   0  0  0  0  0  0
   -1.1968   -1.4416    1.4360 H   0  0  0  0  0  0
   -1.4779   -2.9088    0.4386 H   0  0  0  0  0  0
    0.8163   -2.7957    1.4731 H   0  0  0  0  0  0
    0.8347   -2.9060   -0.3197 H   0  0  0  0  0  0
    1.2281   -0.6816   -1.6704 H   0  0  0  0  0  0
    1.5333    0.8210   -0.7346 H   0  0  0  0  0  0
    6.0997   -1.0992   -2.3052 H   0  0  0  0  0  0
    7.6621   -2.3547   -3.7345 H   0  0  0  0  0  0
    6.9650   -5.9021   -1.3984 H   0  0  0  0  0  0
    5.4028   -4.6557    0.0389 H   0  0  0  0  0  0
    8.8800   -7.3739   -4.1868 H   0  0  0  0  0  0
   10.5322   -8.8452   -3.0755 H   0  0  0  0  0  0
   11.7886   -8.0321   -1.0968 H   0  0  0  0  0  0
   11.3893   -5.7432   -0.2281 H   0  0  0  0  0  0
    9.7378   -4.2668   -1.3342 H   0  0  0  0  0  0
    4.6188    0.7534    4.0473 H   0  0  0  0  0  0
    8.2810   -1.2624    2.0677 H   0  0  0  0  0  0
    7.5622   -2.1337    0.5334 H   0  0  0  0  0  0
    2.5510    0.2637    2.6902 H   0  0  0  0  0  0
  1  2  2  0  0  0
  1 35  1  0  0  0
  1 36  1  0  0  0
  2  3  1  0  0  0
  2 37  1  0  0  0
  3  4  2  0  0  0
  3  5  1  0  0  0
  5 11  1  0  0  0
  5  6  1  0  0  0
  6  7  1  0  0  0
  6 38  1  0  0  0
  6 39  1  0  0  0
  7  8  1  0  0  0
  7 40  1  0  0  0
  7 41  1  0  0  0
  8  9  1  0  0  0
  8 42  1  0  0  0
  8 43  1  0  0  0
  9 10  1  0  0  0
  9 11  1  0  0  0
  9 12  1  0  0  0
 11 44  1  0  0  0
 11 45  1  0  0  0
 12 16  1  0  0  0
 12 13  1  0  0  0
 13 33  2  0  0  0
 13 14  1  0  0  0
 14 15  1  0  0  0
 14 30  2  0  0  0
 15 16  2  0  0  0
 15 17  1  0  0  0
 17 22  2  0  0  0
 17 18  1  0  0  0
 18 19  2  0  0  0
 18 46  1  0  0  0
 19 20  1  0  0  0
 19 47  1  0  0  0
 20 21  2  0  0  0
 20 23  1  0  0  0
 21 22  1  0  0  0
 21 48  1  0  0  0
 22 49  1  0  0  0
 23 24  1  0  0  0
 24 29  2  0  0  0
 24 25  1  0  0  0
 25 26  2  0  0  0
 25 50  1  0  0  0
 26 27  1  0  0  0
 26 51  1  0  0  0
 27 28  2  0  0  0
 27 52  1  0  0  0
 28 29  1  0  0  0
 28 53  1  0  0  0
 29 54  1  0  0  0
 30 31  1  0  0  0
 30 34  1  0  0  0
 31 32  2  0  0  0
 32 33  1  0  0  0
 32 55  1  0  0  0
 33 58  1  0  0  0
 34 56  1  0  0  0
 34 57  1  0  0  0
M  CHG  1  33   1
M  END
> <s_m_source_file>
/Users/andrea/Development/mcce-charges/epik_inhibitors/output/Ibrutinib/Ibrutinib-input.mol2

> <i_m_source_file_index>
1

> <r_lp_tautomer_probability>
1

> <r_epik_Ionization_Penalty>
  1.4842

> <r_epik_Ionization_Penalty_Charging>
  1.4820

> <r_epik_Ionization_Penalty_Neutral>
  0.0022

> <r_epik_State_Penalty>
  4.9042

> <i_epik_Tot_Q>
1

$$$$
1-[(3~{R})-3-[4-amino-3-(4-phenoxyphenyl)pyrazolo[3,4-d]pyrimidin-1-yl]-1-piperidyl]prop-2-en-1-one
                    3D
 Structure written by MMmdl.
 56 60  0  0  1  0            999 V2000
   -0.6639    3.6948   -1.2576 C   0  0  0  0  0  0
   -0.2068    2.5735   -0.6963 C   0  0  0  0  0  0
   -1.0751    1.3796   -0.6784 C   0  0  0  0  0  0
   -2.2932    1.5610   -0.6386 O   0  0  0  0  0  0
   -0.4607    0.1313   -0.7010 N   0  0  0  0  0  0
   -1.2864   -1.0783   -0.6907 C   0  0  0  0  0  0
   -0.9264   -1.9593    0.5039 C   0  0  0  0  0  0
    0.5722   -2.2697    0.5383 C   0  0  0  0  0  0
    1.4080   -0.9758    0.4672 C   0  0  2  0  0  0
    1.2239   -0.3859    1.3772 H   0  0  0  0  0  0
    0.9856   -0.1329   -0.7484 C   0  0  0  0  0  0
    2.8968   -1.2639    0.4716 N   0  0  0  0  0  0
    3.8099   -0.8372    1.3894 C   0  0  0  0  0  0
    5.0300   -1.3448    0.9787 C   0  0  0  0  0  0
    4.7299   -2.0597   -0.1958 C   0  0  0  0  0  0
    3.4307   -2.0140   -0.5103 N   0  0  0  0  0  0
    5.6443   -2.7920   -1.0352 C   0  0  0  0  0  0
    6.2822   -2.1508   -2.0971 C   0  0  0  0  0  0
    7.1675   -2.8596   -2.9093 C   0  0  0  0  0  0
    7.4148   -4.2094   -2.6596 C   0  0  0  0  0  0
    6.7768   -4.8506   -1.5977 C   0  0  0  0  0  0
    5.8916   -4.1418   -0.7855 C   0  0  0  0  0  0
    8.2786   -4.9009   -3.4523 O   0  0  0  0  0  0
    9.2022   -5.7253   -2.8318 C   0  0  0  0  0  0
    9.4264   -7.0127   -3.3198 C   0  0  0  0  0  0
   10.3568   -7.8432   -2.6951 C   0  0  0  0  0  0
   11.0630   -7.3863   -1.5823 C   0  0  0  0  0  0
   10.8387   -6.0989   -1.0943 C   0  0  0  0  0  0
    9.9083   -5.2685   -1.7191 C   0  0  0  0  0  0
    6.1372   -1.0430    1.7646 C   0  0  0  0  0  0
    5.9709   -0.2811    2.8723 N   0  0  0  0  0  0
    4.7171    0.1476    3.1528 C   0  0  0  0  0  0
    3.5732   -0.0788    2.4715 N   0  0  0  0  0  0
    7.4200   -1.5139    1.4310 N   0  5  0  0  0  0
   -0.0324    4.5952   -1.2811 H   0  0  0  0  0  0
   -1.6722    3.7186   -1.6968 H   0  0  0  0  0  0
    0.8015    2.5497   -0.2571 H   0  0  0  0  0  0
   -2.3476   -0.7972   -0.6213 H   0  0  0  0  0  0
   -1.1172   -1.6457   -1.6178 H   0  0  0  0  0  0
   -1.1968   -1.4416    1.4360 H   0  0  0  0  0  0
   -1.4779   -2.9088    0.4386 H   0  0  0  0  0  0
    0.8163   -2.7957    1.4731 H   0  0  0  0  0  0
    0.8347   -2.9060   -0.3197 H   0  0  0  0  0  0
    1.2281   -0.6816   -1.6704 H   0  0  0  0  0  0
    1.5333    0.8210   -0.7346 H   0  0  0  0  0  0
    6.0997   -1.0992   -2.3052 H   0  0  0  0  0  0
    7.6621   -2.3547   -3.7345 H   0  0  0  0  0  0
    6.9650   -5.9021   -1.3984 H   0  0  0  0  0  0
    5.4028   -4.6557    0.0389 H   0  0  0  0  0  0
    8.8800   -7.3739   -4.1868 H   0  0  0  0  0  0
   10.5322   -8.8452   -3.0755 H   0  0  0  0  0  0
   11.7886   -8.0321   -1.0968 H   0  0  0  0  0  0
   11.3893   -5.7432   -0.2281 H   0  0  0  0  0  0
    9.7378   -4.2668   -1.3342 H   0  0  0  0  0  0
    4.6188    0.7534    4.0473 H   0  0  0  0  0  0
    8.2810   -1.2624    2.0677 H   0  0  0  0  0  0
  1  2  2  0  0  0
  1 35  1  0  0  0
  1 36  1  0  0  0
  2  3  1  0  0  0
  2 37  1  0  0  0
  3  4  2  0  0  0
  3  5  1  0  0  0
  5 11  1  0  0  0
  5  6  1  0  0  0
  6  7  1  0  0  0
  6 38  1  0  0  0
  6 39  1  0  0  0
  7  8  1  0  0  0
  7 40  1  0  0  0
  7 41  1  0  0  0
  8  9  1  0  0  0
  8 42  1  0  0  0
  8 43  1  0  0  0
  9 10  1  0  0  0
  9 11  1  0  0  0
  9 12  1  0  0  0
 11 44  1  0  0  0
 11 45  1  0  0  0
 12 16  1  0  0  0
 12 13  1  0  0  0
 13 33  2  0  0  0
 13 14  1  0  0  0
 14 15  1  0  0  0
 14 30  2  0  0  0
 15 16  2  0  0  0
 15 17  1  0  0  0
 17 22  2  0  0  0
 17 18  1  0  0  0
 18 19  2  0  0  0
 18 46  1  0  0  0
 19 20  1  0  0  0
 19 47  1  0  0  0
 20 21  2  0  0  0
 20 23  1  0  0  0
 21 22  1  0  0  0
 21 48  1  0  0  0
 22 49  1  0  0  0
 23 24  1  0  0  0
 24 29  2  0  0  0
 24 25  1  0  0  0
 25 26  2  0  0  0
 25 50  1  0  0  0
 26 27  1  0  0  0
 26 51  1  0  0  0
 27 28  2  0  0  0
 27 52  1  0  0  0
 28 29  1  0  0  0
 28 53  1  0  0  0
 29 54  1  0  0  0
 30 31  1  0  0  0
 30 34  1  0  0  0
 31 32  2  0  0  0
 32 33  1  0  0  0
 32 55  1  0  0  0
 34 56  1  0  0  0
M  CHG  1  34  -1
M  END
> <s_m_source_file>
/Users/andrea/Development/mcce-charges/epik_inhibitors/output/Ibrutinib/Ibrutinib-input.mol2

> <i_m_source_file_index>
1

> <r_lp_tautomer_probability>
1

> <r_epik_Ionization_Penalty>
  8.0373

> <r_epik_Ionization_Penalty_Charging>
  8.0286

> <r_epik_Ionization_Penalty_Neutral>
  0.0087

> <r_epik_State_Penalty>
  7.1127

> <i_epik_Tot_Q>
-1

$$$$
1-[(3~{R})-3-[4-amino-3-(4-phenoxyphenyl)pyrazolo[3,4-d]pyrimidin-1-yl]-1-piperidyl]prop-2-en-1-one
                    3D
 Structure written by MMmdl.
 58 62  0  0  1  0            999 V2000
   -0.6639    3.6948   -1.2576 C   0  0  0  0  0  0
   -0.2068    2.5735   -0.6963 C   0  0  0  0  0  0
   -1.0751    1.3796   -0.6784 C   0  0  0  0  0  0
   -2.2932    1.5610   -0.6386 O   0  0  0  0  0  0
   -0.4607    0.1313   -0.7010 N   0  0  0  0  0  0
   -1.2864   -1.0783   -0.6907 C   0  0  0  0  0  0
   -0.9264   -1.9593    0.5039 C   0  0  0  0  0  0
    0.5722   -2.2697    0.5383 C   0  0  0  0  0  0
    1.4080   -0.9758    0.4672 C   0  0  2  0  0  0
    1.2239   -0.3859    1.3772 H   0  0  0  0  0  0
    0.9856   -0.1329   -0.7484 C   0  0  0  0  0  0
    2.8968   -1.2639    0.4716 N   0  0  0  0  0  0
    3.8099   -0.8372    1.3894 C   0  0  0  0  0  0
    5.0300   -1.3448    0.9787 C   0  0  0  0  0  0
    4.7299   -2.0597   -0.1958 C   0  0  0  0  0  0
    3.4307   -2.0140   -0.5103 N   0  3  0  0  0  0
    5.6443   -2.7920   -1.0352 C   0  0  0  0  0  0
    6.2822   -2.1508   -2.0971 C   0  0  0  0  0  0
    7.1675   -2.8596   -2.9093 C   0  0  0  0  0  0
    7.4148   -4.2094   -2.6596 C   0  0  0  0  0  0
    6.7768   -4.8506   -1.5977 C   0  0  0  0  0  0
    5.8916   -4.1418   -0.7855 C   0  0  0  0  0  0
    8.2786   -4.9009   -3.4523 O   0  0  0  0  0  0
    9.2022   -5.7253   -2.8318 C   0  0  0  0  0  0
    9.4264   -7.0127   -3.3198 C   0  0  0  0  0  0
   10.3568   -7.8432   -2.6951 C   0  0  0  0  0  0
   11.0630   -7.3863   -1.5823 C   0  0  0  0  0  0
   10.8387   -6.0989   -1.0943 C   0  0  0  0  0  0
    9.9083   -5.2685   -1.7191 C   0  0  0  0  0  0
    6.1372   -1.0430    1.7646 C   0  0  0  0  0  0
    5.9709   -0.2811    2.8723 N   0  0  0  0  0  0
    4.7171    0.1476    3.1528 C   0  0  0  0  0  0
    3.5732   -0.0788    2.4715 N   0  0  0  0  0  0
    7.4200   -1.5139    1.4310 N   0  0  0  0  0  0
   -0.0324    4.5952   -1.2811 H   0  0  0  0  0  0
   -1.6722    3.7186   -1.6968 H   0  0  0  0  0  0
    0.8015    2.5497   -0.2571 H   0  0  0  0  0  0
   -2.3476   -0.7972   -0.6213 H   0  0  0  0  0  0
   -1.1172   -1.6457   -1.6178 H   0  0  0  0  0  0
   -1.1968   -1.4416    1.4360 H   0  0  0  0  0  0
   -1.4779   -2.9088    0.4386 H   0  0  0  0  0  0
    0.8163   -2.7957    1.4731 H   0  0  0  0  0  0
    0.8347   -2.9060   -0.3197 H   0  0  0  0  0  0
    1.2281   -0.6816   -1.6704 H   0  0  0  0  0  0
    1.5333    0.8210   -0.7346 H   0  0  0  0  0  0
    6.0997   -1.0992   -2.3052 H   0  0  0  0  0  0
    7.6621   -2.3547   -3.7345 H   0  0  0  0  0  0
    6.9650   -5.9021   -1.3984 H   0  0  0  0  0  0
    5.4028   -4.6557    0.0389 H   0  0  0  0  0  0
    8.8800   -7.3739   -4.1868 H   0  0  0  0  0  0
   10.5322   -8.8452   -3.0755 H   0  0  0  0  0  0
   11.7886   -8.0321   -1.0968 H   0  0  0  0  0  0
   11.3893   -5.7432   -0.2281 H   0  0  0  0  0  0
    9.7378   -4.2668   -1.3342 H   0  0  0  0  0  0
    4.6188    0.7534    4.0473 H   0  0  0  0  0  0
    8.2810   -1.2624    2.0677 H   0  0  0  0  0  0
    7.5622   -2.1337    0.5334 H   0  0  0  0  0  0
    2.7878   -2.4141   -1.3082 H   0  0  0  0  0  0
  1  2  2  0  0  0
  1 35  1  0  0  0
  1 36  1  0  0  0
  2  3  1  0  0  0
  2 37  1  0  0  0
  3  4  2  0  0  0
  3  5  1  0  0  0
  5 11  1  0  0  0
  5  6  1  0  0  0
  6  7  1  0  0  0
  6 38  1  0  0  0
  6 39  1  0  0  0
  7  8  1  0  0  0
  7 40  1  0  0  0
  7 41  1  0  0  0
  8  9  1  0  0  0
  8 42  1  0  0  0
  8 43  1  0  0  0
  9 10  1  0  0  0
  9 11  1  0  0  0
  9 12  1  0  0  0
 11 44  1  0  0  0
 11 45  1  0  0  0
 12 16  1  0  0  0
 12 13  1  0  0  0
 13 33  2  0  0  0
 13 14  1  0  0  0
 14 15  1  0  0  0
 14 30  2  0  0  0
 15 16  2  0  0  0
 15 17  1  0  0  0
 16 58  1  0  0  0
 17 22  2  0  0  0
 17 18  1  0  0  0
 18 19  2  0  0  0
 18 46  1  0  0  0
 19 20  1  0  0  0
 19 47  1  0  0  0
 20 21  2  0  0  0
 20 23  1  0  0  0
 21 22  1  0  0  0
 21 48  1  0  0  0
 22 49  1  0  0  0
 23 24  1  0  0  0
 24 29  2  0  0  0
 24 25  1  0  0  0
 25 26  2  0  0  0
 25 50  1  0  0  0
 26 27  1  0  0  0
 26 51  1  0  0  0
 27 28  2  0  0  0
 27 52  1  0  0  0
 28 29  1  0  0  0
 28 53  1  0  0  0
 29 54  1  0  0  0
 30 31  1  0  0  0
 30 34  1  0  0  0
 31 32  2  0  0  0
 32 33  1  0  0  0
 32 55  1  0  0  0
 34 56  1  0  0  0
 34 57  1  0  0  0
M  CHG  1  16   1
M  END
> <s_m_source_file>
/Users/andrea/Development/mcce-charges/epik_inhibitors/output/Ibrutinib/Ibrutinib-input.mol2

> <i_m_source_file_index>
1

> <r_epik_Ionization_Penalty>
  6.9590

> <r_epik_Ionization_Penalty_Charging>
  6.9590

> <r_epik_Ionization_Penalty_Neutral>
  0.0000

> <r_epik_State_Penalty>
  8.2666

> <i_epik_Tot_Q>
1

$$$$
1-[(3~{R})-3-[4-amino-3-(4-phenoxyphenyl)pyrazolo[3,4-d]pyrimidin-1-yl]-1-piperidyl]prop-2-en-1-one
                    3D
 Structure written by MMmdl.
 58 62  0  0  1  0            999 V2000
   -0.6639    3.6948   -1.2576 C   0  0  0  0  0  0
   -0.2068    2.5735   -0.6963 C   0  0  0  0  0  0
   -1.0751    1.3796   -0.6784 C   0  0  0  0  0  0
   -2.2932    1.5610   -0.6386 O   0  0  0  0  0  0
   -0.4607    0.1313   -0.7010 N   0  0  0  0  0  0
   -1.2864   -1.0783   -0.6907 C   0  0  0  0  0  0
   -0.9264   -1.9593    0.5039 C   0  0  0  0  0  0
    0.5722   -2.2697    0.5383 C   0  0  0  0  0  0
    1.4080   -0.9758    0.4672 C   0  0  2  0  0  0
    1.2239   -0.3859    1.3772 H   0  0  0  0  0  0
    0.9856   -0.1329   -0.7484 C   0  0  0  0  0  0
    2.8968   -1.2639    0.4716 N   0  0  0  0  0  0
    3.8099   -0.8372    1.3894 C   0  0  0  0  0  0
    5.0300   -1.3448    0.9787 C   0  0  0  0  0  0
    4.7299   -2.0597   -0.1958 C   0  0  0  0  0  0
    3.4307   -2.0140   -0.5103 N   0  0  0  0  0  0
    5.6443   -2.7920   -1.0352 C   0  0  0  0  0  0
    6.2822   -2.1508   -2.0971 C   0  0  0  0  0  0
    7.1675   -2.8596   -2.9093 C   0  0  0  0  0  0
    7.4148   -4.2094   -2.6596 C   0  0  0  0  0  0
    6.7768   -4.8506   -1.5977 C   0  0  0  0  0  0
    5.8916   -4.1418   -0.7855 C   0  0  0  0  0  0
    8.2786   -4.9009   -3.4523 O   0  0  0  0  0  0
    9.2022   -5.7253   -2.8318 C   0  0  0  0  0  0
    9.4264   -7.0127   -3.3198 C   0  0  0  0  0  0
   10.3568   -7.8432   -2.6951 C   0  0  0  0  0  0
   11.0630   -7.3863   -1.5823 C   0  0  0  0  0  0
   10.8387   -6.0989   -1.0943 C   0  0  0  0  0  0
    9.9083   -5.2685   -1.7191 C   0  0  0  0  0  0
    6.1372   -1.0430    1.7646 C   0  0  0  0  0  0
    5.9709   -0.2811    2.8723 N   0  3  0  0  0  0
    4.7171    0.1476    3.1528 C   0  0  0  0  0  0
    3.5732   -0.0788    2.4715 N   0  0  0  0  0  0
    7.4200   -1.5139    1.4310 N   0  0  0  0  0  0
   -0.0324    4.5952   -1.2811 H   0  0  0  0  0  0
   -1.6722    3.7186   -1.6968 H   0  0  0  0  0  0
    0.8015    2.5497   -0.2571 H   0  0  0  0  0  0
   -2.3476   -0.7972   -0.6213 H   0  0  0  0  0  0
   -1.1172   -1.6457   -1.6178 H   0  0  0  0  0  0
   -1.1968   -1.4416    1.4360 H   0  0  0  0  0  0
   -1.4779   -2.9088    0.4386 H   0  0  0  0  0  0
    0.8163   -2.7957    1.4731 H   0  0  0  0  0  0
    0.8347   -2.9060   -0.3197 H   0  0  0  0  0  0
    1.2281   -0.6816   -1.6704 H   0  0  0  0  0  0
    1.5333    0.8210   -0.7346 H   0  0  0  0  0  0
    6.0997   -1.0992   -2.3052 H   0  0  0  0  0  0
    7.6621   -2.3547   -3.7345 H   0  0  0  0  0  0
    6.9650   -5.9021   -1.3984 H   0  0  0  0  0  0
    5.4028   -4.6557    0.0389 H   0  0  0  0  0  0
    8.8800   -7.3739   -4.1868 H   0  0  0  0  0  0
   10.5322   -8.8452   -3.0755 H   0  0  0  0  0  0
   11.7886   -8.0321   -1.0968 H   0  0  0  0  0  0
   11.3893   -5.7432   -0.2281 H   0  0  0  0  0  0
    9.7378   -4.2668   -1.3342 H   0  0  0  0  0  0
    4.6188    0.7534    4.0473 H   0  0  0  0  0  0
    8.2810   -1.2624    2.0677 H   0  0  0  0  0  0
    7.5622   -2.1337    0.5334 H   0  0  0  0  0  0
    6.8364   -0.0332    3.5044 H   0  0  0  0  0  0
  1  2  2  0  0  0
  1 35  1  0  0  0
  1 36  1  0  0  0
  2  3  1  0  0  0
  2 37  1  0  0  0
  3  4  2  0  0  0
  3  5  1  0  0  0
  5 11  1  0  0  0
  5  6  1  0  0  0
  6  7  1  0  0  0
  6 38  1  0  0  0
  6 39  1  0  0  0
  7  8  1  0  0  0
  7 40  1  0  0  0
  7 41  1  0  0  0
  8  9  1  0  0  0
  8 42  1  0  0  0
  8 43  1  0  0  0
  9 10  1  0  0  0
  9 11  1  0  0  0
  9 12  1  0  0  0
 11 44  1  0  0  0
 11 45  1  0  0  0
 12 16  1  0  0  0
 12 13  1  0  0  0
 13 33  2  0  0  0
 13 14  1  0  0  0
 14 15  1  0  0  0
 14 30  2  0  0  0
 15 16  2  0  0  0
 15 17  1  0  0  0
 17 22  2  0  0  0
 17 18  1  0  0  0
 18 19  2  0  0  0
 18 46  1  0  0  0
 19 20  1  0  0  0
 19 47  1  0  0  0
 20 21  2  0  0  0
 20 23  1  0  0  0
 21 22  1  0  0  0
 21 48  1  0  0  0
 22 49  1  0  0  0
 23 24  1  0  0  0
 24 29  2  0  0  0
 24 25  1  0  0  0
 25 26  2  0  0  0
 25 50  1  0  0  0
 26 27  1  0  0  0
 26 51  1  0  0  0
 27 28  2  0  0  0
 27 52  1  0  0  0
 28 29  1  0  0  0
 28 53  1  0  0  0
 29 54  1  0  0  0
 30 31  1  0  0  0
 30 34  1  0  0  0
 31 32  2  0  0  0
 31 58  1  0  0  0
 32 33  1  0  0  0
 32 55  1  0  0  0
 34 56  1  0  0  0
 34 57  1  0  0  0
M  CHG  1  31   1
M  END
> <s_m_source_file>
/Users/andrea/Development/mcce-charges/epik_inhibitors/output/Ibrutinib/Ibrutinib-input.mol2

> <i_m_source_file_index>
1

> <r_epik_Ionization_Penalty>
  4.6952

> <r_epik_Ionization_Penalty_Charging>
  4.6780

> <r_epik_Ionization_Penalty_Neutral>
  0.0173

> <r_epik_State_Penalty>
  8.2710

> <i_epik_Tot_Q>
1

$$$$
1-[(3~{R})-3-[4-amino-3-(4-phenoxyphenyl)pyrazolo[3,4-d]pyrimidin-1-yl]-1-piperidyl]prop-2-en-1-one
                    3D
 Structure written by MMmdl.
 56 60  0  0  1  0            999 V2000
   -0.6639    3.6948   -1.2576 C   0  0  0  0  0  0
   -0.2068    2.5735   -0.6963 C   0  0  0  0  0  0
   -1.0751    1.3796   -0.6784 C   0  0  0  0  0  0
   -2.2932    1.5610   -0.6386 O   0  0  0  0  0  0
   -0.4607    0.1313   -0.7010 N   0  0  0  0  0  0
   -1.2864   -1.0783   -0.6907 C   0  0  0  0  0  0
   -0.9264   -1.9593    0.5039 C   0  0  0  0  0  0
    0.5722   -2.2697    0.5383 C   0  0  0  0  0  0
    1.4080   -0.9758    0.4672 C   0  0  2  0  0  0
    1.2239   -0.3859    1.3772 H   0  0  0  0  0  0
    0.9856   -0.1329   -0.7484 C   0  0  0  0  0  0
    2.8968   -1.2639    0.4716 N   0  0  0  0  0  0
    3.8099   -0.8372    1.3894 C   0  0  0  0  0  0
    5.0300   -1.3448    0.9787 C   0  0  0  0  0  0
    4.7299   -2.0597   -0.1958 C   0  0  0  0  0  0
    3.4307   -2.0140   -0.5103 N   0  0  0  0  0  0
    5.6443   -2.7920   -1.0352 C   0  0  0  0  0  0
    6.2822   -2.1508   -2.0971 C   0  0  0  0  0  0
    7.1675   -2.8596   -2.9093 C   0  0  0  0  0  0
    7.4148   -4.2094   -2.6596 C   0  0  0  0  0  0
    6.7768   -4.8506   -1.5977 C   0  0  0  0  0  0
    5.8916   -4.1418   -0.7855 C   0  0  0  0  0  0
    8.2786   -4.9009   -3.4523 O   0  0  0  0  0  0
    9.2022   -5.7253   -2.8318 C   0  0  0  0  0  0
    9.4264   -7.0127   -3.3198 C   0  0  0  0  0  0
   10.3568   -7.8432   -2.6951 C   0  0  0  0  0  0
   11.0630   -7.3863   -1.5823 C   0  0  0  0  0  0
   10.8387   -6.0989   -1.0943 C   0  0  0  0  0  0
    9.9083   -5.2685   -1.7191 C   0  0  0  0  0  0
    6.1372   -1.0430    1.7646 C   0  0  0  0  0  0
    5.9709   -0.2811    2.8723 N   0  5  0  0  0  0
    4.7171    0.1476    3.1528 C   0  0  0  0  0  0
    3.5732   -0.0788    2.4715 N   0  0  0  0  0  0
    7.4200   -1.5139    1.4310 N   0  0  0  0  0  0
   -0.0324    4.5952   -1.2811 H   0  0  0  0  0  0
   -1.6722    3.7186   -1.6968 H   0  0  0  0  0  0
    0.8015    2.5497   -0.2571 H   0  0  0  0  0  0
   -2.3476   -0.7972   -0.6213 H   0  0  0  0  0  0
   -1.1172   -1.6457   -1.6178 H   0  0  0  0  0  0
   -1.1968   -1.4416    1.4360 H   0  0  0  0  0  0
   -1.4779   -2.9088    0.4386 H   0  0  0  0  0  0
    0.8163   -2.7957    1.4731 H   0  0  0  0  0  0
    0.8347   -2.9060   -0.3197 H   0  0  0  0  0  0
    1.2281   -0.6816   -1.6704 H   0  0  0  0  0  0
    1.5333    0.8210   -0.7346 H   0  0  0  0  0  0
    6.0997   -1.0992   -2.3052 H   0  0  0  0  0  0
    7.6621   -2.3547   -3.7345 H   0  0  0  0  0  0
    6.9650   -5.9021   -1.3984 H   0  0  0  0  0  0
    5.4028   -4.6557    0.0389 H   0  0  0  0  0  0
    8.8800   -7.3739   -4.1868 H   0  0  0  0  0  0
   10.5322   -8.8452   -3.0755 H   0  0  0  0  0  0
   11.7886   -8.0321   -1.0968 H   0  0  0  0  0  0
   11.3893   -5.7432   -0.2281 H   0  0  0  0  0  0
    9.7378   -4.2668   -1.3342 H   0  0  0  0  0  0
    4.6188    0.7534    4.0473 H   0  0  0  0  0  0
    7.5470   -2.0377    0.5866 H   0  0  0  0  0  0
  1  2  2  0  0  0
  1 35  1  0  0  0
  1 36  1  0  0  0
  2  3  1  0  0  0
  2 37  1  0  0  0
  3  4  2  0  0  0
  3  5  1  0  0  0
  5 11  1  0  0  0
  5  6  1  0  0  0
  6  7  1  0  0  0
  6 38  1  0  0  0
  6 39  1  0  0  0
  7  8  1  0  0  0
  7 40  1  0  0  0
  7 41  1  0  0  0
  8  9  1  0  0  0
  8 42  1  0  0  0
  8 43  1  0  0  0
  9 10  1  0  0  0
  9 11  1  0  0  0
  9 12  1  0  0  0
 11 44  1  0  0  0
 11 45  1  0  0  0
 12 16  1  0  0  0
 12 13  1  0  0  0
 13 33  1  0  0  0
 13 14  2  0  0  0
 14 15  1  0  0  0
 14 30  1  0  0  0
 15 16  2  0  0  0
 15 17  1  0  0  0
 17 22  2  0  0  0
 17 18  1  0  0  0
 18 19  2  0  0  0
 18 46  1  0  0  0
 19 20  1  0  0  0
 19 47  1  0  0  0
 20 21  2  0  0  0
 20 23  1  0  0  0
 21 22  1  0  0  0
 21 48  1  0  0  0
 22 49  1  0  0  0
 23 24  1  0  0  0
 24 29  2  0  0  0
 24 25  1  0  0  0
 25 26  2  0  0  0
 25 50  1  0  0  0
 26 27  1  0  0  0
 26 51  1  0  0  0
 27 28  2  0  0  0
 27 52  1  0  0  0
 28 29  1  0  0  0
 28 53  1  0  0  0
 29 54  1  0  0  0
 30 31  1  0  0  0
 30 34  2  0  0  0
 31 32  1  0  0  0
 32 33  2  0  0  0
 32 55  1  0  0  0
 34 56  1  0  0  0
M  CHG  1  31  -1
M  END
> <s_m_source_file>
/Users/andrea/Development/mcce-charges/epik_inhibitors/output/Ibrutinib/Ibrutinib-input.mol2

> <i_m_source_file_index>
1

> <r_lp_tautomer_probability>
1

> <r_epik_Ionization_Penalty>
  9.8504

> <r_epik_Ionization_Penalty_Charging>
  9.8417

> <r_epik_Ionization_Penalty_Neutral>
  0.0086

> <r_epik_State_Penalty>
  9.2796

> <i_epik_Tot_Q>
-1

$$$$
1-[(3~{R})-3-[4-amino-3-(4-phenoxyphenyl)pyrazolo[3,4-d]pyrimidin-1-yl]-1-piperidyl]prop-2-en-1-one
                    3D
 Structure written by MMmdl.
 56 60  0  0  1  0            999 V2000
   -0.6639    3.6948   -1.2576 C   0  0  0  0  0  0
   -0.2068    2.5735   -0.6963 C   0  0  0  0  0  0
   -1.0751    1.3796   -0.6784 C   0  0  0  0  0  0
   -2.2932    1.5610   -0.6386 O   0  0  0  0  0  0
   -0.4607    0.1313   -0.7010 N   0  0  0  0  0  0
   -1.2864   -1.0783   -0.6907 C   0  0  0  0  0  0
   -0.9264   -1.9593    0.5039 C   0  0  0  0  0  0
    0.5722   -2.2697    0.5383 C   0  0  0  0  0  0
    1.4080   -0.9758    0.4672 C   0  0  2  0  0  0
    1.2239   -0.3859    1.3772 H   0  0  0  0  0  0
    0.9856   -0.1329   -0.7484 C   0  0  0  0  0  0
    2.8968   -1.2639    0.4716 N   0  0  0  0  0  0
    3.8099   -0.8372    1.3894 C   0  0  0  0  0  0
    5.0300   -1.3448    0.9787 C   0  0  0  0  0  0
    4.7299   -2.0597   -0.1958 C   0  0  0  0  0  0
    3.4307   -2.0140   -0.5103 N   0  0  0  0  0  0
    5.6443   -2.7920   -1.0352 C   0  0  0  0  0  0
    6.2822   -2.1508   -2.0971 C   0  0  0  0  0  0
    7.1675   -2.8596   -2.9093 C   0  0  0  0  0  0
    7.4148   -4.2094   -2.6596 C   0  0  0  0  0  0
    6.7768   -4.8506   -1.5977 C   0  0  0  0  0  0
    5.8916   -4.1418   -0.7855 C   0  0  0  0  0  0
    8.2786   -4.9009   -3.4523 O   0  0  0  0  0  0
    9.2022   -5.7253   -2.8318 C   0  0  0  0  0  0
    9.4264   -7.0127   -3.3198 C   0  0  0  0  0  0
   10.3568   -7.8432   -2.6951 C   0  0  0  0  0  0
   11.0630   -7.3863   -1.5823 C   0  0  0  0  0  0
   10.8387   -6.0989   -1.0943 C   0  0  0  0  0  0
    9.9083   -5.2685   -1.7191 C   0  0  0  0  0  0
    6.1372   -1.0430    1.7646 C   0  0  0  0  0  0
    5.9709   -0.2811    2.8723 N   0  5  0  0  0  0
    4.7171    0.1476    3.1528 C   0  0  0  0  0  0
    3.5732   -0.0788    2.4715 N   0  0  0  0  0  0
    7.4200   -1.5139    1.4310 N   0  0  0  0  0  0
   -0.0324    4.5952   -1.2811 H   0  0  0  0  0  0
   -1.6722    3.7186   -1.6968 H   0  0  0  0  0  0
    0.8015    2.5497   -0.2571 H   0  0  0  0  0  0
   -2.3476   -0.7972   -0.6213 H   0  0  0  0  0  0
   -1.1172   -1.6457   -1.6178 H   0  0  0  0  0  0
   -1.1968   -1.4416    1.4360 H   0  0  0  0  0  0
   -1.4779   -2.9088    0.4386 H   0  0  0  0  0  0
    0.8163   -2.7957    1.4731 H   0  0  0  0  0  0
    0.8347   -2.9060   -0.3197 H   0  0  0  0  0  0
    1.2281   -0.6816   -1.6704 H   0  0  0  0  0  0
    1.5333    0.8210   -0.7346 H   0  0  0  0  0  0
    6.0997   -1.0992   -2.3052 H   0  0  0  0  0  0
    7.6621   -2.3547   -3.7345 H   0  0  0  0  0  0
    6.9650   -5.9021   -1.3984 H   0  0  0  0  0  0
    5.4028   -4.6557    0.0389 H   0  0  0  0  0  0
    8.8800   -7.3739   -4.1868 H   0  0  0  0  0  0
   10.5322   -8.8452   -3.0755 H   0  0  0  0  0  0
   11.7886   -8.0321   -1.0968 H   0  0  0  0  0  0
   11.3893   -5.7432   -0.2281 H   0  0  0  0  0  0
    9.7378   -4.2668   -1.3342 H   0  0  0  0  0  0
    4.6188    0.7534    4.0473 H   0  0  0  0  0  0
    8.2049   -1.2406    1.9904 H   0  0  0  0  0  0
  1  2  2  0  0  0
  1 35  1  0  0  0
  1 36  1  0  0  0
  2  3  1  0  0  0
  2 37  1  0  0  0
  3  4  2  0  0  0
  3  5  1  0  0  0
  5 11  1  0  0  0
  5  6  1  0  0  0
  6  7  1  0  0  0
  6 38  1  0  0  0
  6 39  1  0  0  0
  7  8  1  0  0  0
  7 40  1  0  0  0
  7 41  1  0  0  0
  8  9  1  0  0  0
  8 42  1  0  0  0
  8 43  1  0  0  0
  9 10  1  0  0  0
  9 11  1  0  0  0
  9 12  1  0  0  0
 11 44  1  0  0  0
 11 45  1  0  0  0
 12 16  1  0  0  0
 12 13  1  0  0  0
 13 33  1  0  0  0
 13 14  2  0  0  0
 14 15  1  0  0  0
 14 30  1  0  0  0
 15 16  2  0  0  0
 15 17  1  0  0  0
 17 22  2  0  0  0
 17 18  1  0  0  0
 18 19  2  0  0  0
 18 46  1  0  0  0
 19 20  1  0  0  0
 19 47  1  0  0  0
 20 21  2  0  0  0
 20 23  1  0  0  0
 21 22  1  0  0  0
 21 48  1  0  0  0
 22 49  1  0  0  0
 23 24  1  0  0  0
 24 29  2  0  0  0
 24 25  1  0  0  0
 25 26  2  0  0  0
 25 50  1  0  0  0
 26 27  1  0  0  0
 26 51  1  0  0  0
 27 28  2  0  0  0
 27 52  1  0  0  0
 28 29  1  0  0  0
 28 53  1  0  0  0
 29 54  1  0  0  0
 30 31  1  0  0  0
 30 34  2  0  0  0
 31 32  1  0  0  0
 32 33  2  0  0  0
 32 55  1  0  0  0
 34 56  1  0  0  0
M  CHG  1  31  -1
M  END
> <s_m_source_file>
/Users/andrea/Development/mcce-charges/epik_inhibitors/output/Ibrutinib/Ibrutinib-input.mol2

> <i_m_source_file_index>
1

> <r_lp_tautomer_probability>
1

> <r_epik_Ionization_Penalty>
  9.8504

> <r_epik_Ionization_Penalty_Charging>
  9.8417

> <r_epik_Ionization_Penalty_Neutral>
  0.0086

> <r_epik_State_Penalty>
  9.2796

> <i_epik_Tot_Q>
-1

$$$$
1-[(3~{R})-3-[4-amino-3-(4-phenoxyphenyl)pyrazolo[3,4-d]pyrimidin-1-yl]-1-piperidyl]prop-2-en-1-one
                    3D
 Structure written by MMmdl.
 57 61  0  0  1  0            999 V2000
   -0.6639    3.6948   -1.2576 C   0  0  0  0  0  0
   -0.2068    2.5735   -0.6963 C   0  0  0  0  0  0
   -1.0751    1.3796   -0.6784 C   0  0  0  0  0  0
   -2.2932    1.5610   -0.6386 O   0  0  0  0  0  0
   -0.4607    0.1313   -0.7010 N   0  0  0  0  0  0
   -1.2864   -1.0783   -0.6907 C   0  0  0  0  0  0
   -0.9264   -1.9593    0.5039 C   0  0  0  0  0  0
    0.5722   -2.2697    0.5383 C   0  0  0  0  0  0
    1.4080   -0.9758    0.4672 C   0  0  2  0  0  0
    1.2239   -0.3859    1.3772 H   0  0  0  0  0  0
    0.9856   -0.1329   -0.7484 C   0  0  0  0  0  0
    2.8968   -1.2639    0.4716 N   0  0  0  0  0  0
    3.8099   -0.8372    1.3894 C   0  0  0  0  0  0
    5.0300   -1.3448    0.9787 C   0  0  0  0  0  0
    4.7299   -2.0597   -0.1958 C   0  0  0  0  0  0
    3.4307   -2.0140   -0.5103 N   0  0  0  0  0  0
    5.6443   -2.7920   -1.0352 C   0  0  0  0  0  0
    6.2822   -2.1508   -2.0971 C   0  0  0  0  0  0
    7.1675   -2.8596   -2.9093 C   0  0  0  0  0  0
    7.4148   -4.2094   -2.6596 C   0  0  0  0  0  0
    6.7768   -4.8506   -1.5977 C   0  0  0  0  0  0
    5.8916   -4.1418   -0.7855 C   0  0  0  0  0  0
    8.2786   -4.9009   -3.4523 O   0  0  0  0  0  0
    9.2022   -5.7253   -2.8318 C   0  0  0  0  0  0
    9.4264   -7.0127   -3.3198 C   0  0  0  0  0  0
   10.3568   -7.8432   -2.6951 C   0  0  0  0  0  0
   11.0630   -7.3863   -1.5823 C   0  0  0  0  0  0
   10.8387   -6.0989   -1.0943 C   0  0  0  0  0  0
    9.9083   -5.2685   -1.7191 C   0  0  0  0  0  0
    6.1372   -1.0430    1.7646 C   0  0  0  0  0  0
    5.9709   -0.2811    2.8723 N   0  0  0  0  0  0
    4.7171    0.1476    3.1528 C   0  0  0  0  0  0
    3.5732   -0.0788    2.4715 N   0  0  0  0  0  0
    7.4200   -1.5139    1.4310 N   0  0  0  0  0  0
   -0.0324    4.5952   -1.2811 H   0  0  0  0  0  0
   -1.6722    3.7186   -1.6968 H   0  0  0  0  0  0
    0.8015    2.5497   -0.2571 H   0  0  0  0  0  0
   -2.3476   -0.7972   -0.6213 H   0  0  0  0  0  0
   -1.1172   -1.6457   -1.6178 H   0  0  0  0  0  0
   -1.1968   -1.4416    1.4360 H   0  0  0  0  0  0
   -1.4779   -2.9088    0.4386 H   0  0  0  0  0  0
    0.8163   -2.7957    1.4731 H   0  0  0  0  0  0
    0.8347   -2.9060   -0.3197 H   0  0  0  0  0  0
    1.2281   -0.6816   -1.6704 H   0  0  0  0  0  0
    1.5333    0.8210   -0.7346 H   0  0  0  0  0  0
    6.0997   -1.0992   -2.3052 H   0  0  0  0  0  0
    7.6621   -2.3547   -3.7345 H   0  0  0  0  0  0
    6.9650   -5.9021   -1.3984 H   0  0  0  0  0  0
    5.4028   -4.6557    0.0389 H   0  0  0  0  0  0
    8.8800   -7.3739   -4.1868 H   0  0  0  0  0  0
   10.5322   -8.8452   -3.0755 H   0  0  0  0  0  0
   11.7886   -8.0321   -1.0968 H   0  0  0  0  0  0
   11.3893   -5.7432   -0.2281 H   0  0  0  0  0  0
    9.7378   -4.2668   -1.3342 H   0  0  0  0  0  0
    4.6188    0.7534    4.0473 H   0  0  0  0  0  0
    7.5470   -2.0377    0.5866 H   0  0  0  0  0  0
    2.5510    0.2637    2.6902 H   0  0  0  0  0  0
  1  2  2  0  0  0
  1 35  1  0  0  0
  1 36  1  0  0  0
  2  3  1  0  0  0
  2 37  1  0  0  0
  3  4  2  0  0  0
  3  5  1  0  0  0
  5 11  1  0  0  0
  5  6  1  0  0  0
  6  7  1  0  0  0
  6 38  1  0  0  0
  6 39  1  0  0  0
  7  8  1  0  0  0
  7 40  1  0  0  0
  7 41  1  0  0  0
  8  9  1  0  0  0
  8 42  1  0  0  0
  8 43  1  0  0  0
  9 10  1  0  0  0
  9 11  1  0  0  0
  9 12  1  0  0  0
 11 44  1  0  0  0
 11 45  1  0  0  0
 12 16  1  0  0  0
 12 13  1  0  0  0
 13 33  1  0  0  0
 13 14  2  0  0  0
 14 15  1  0  0  0
 14 30  1  0  0  0
 15 16  2  0  0  0
 15 17  1  0  0  0
 17 22  2  0  0  0
 17 18  1  0  0  0
 18 19  2  0  0  0
 18 46  1  0  0  0
 19 20  1  0  0  0
 19 47  1  0  0  0
 20 21  2  0  0  0
 20 23  1  0  0  0
 21 22  1  0  0  0
 21 48  1  0  0  0
 22 49  1  0  0  0
 23 24  1  0  0  0
 24 29  2  0  0  0
 24 25  1  0  0  0
 25 26  2  0  0  0
 25 50  1  0  0  0
 26 27  1  0  0  0
 26 51  1  0  0  0
 27 28  2  0  0  0
 27 52  1  0  0  0
 28 29  1  0  0  0
 28 53  1  0  0  0
 29 54  1  0  0  0
 30 31  1  0  0  0
 30 34  2  0  0  0
 31 32  2  0  0  0
 32 33  1  0  0  0
 32 55  1  0  0  0
 33 57  1  0  0  0
 34 56  1  0  0  0
M  END
> <s_m_source_file>
/Users/andrea/Development/mcce-charges/epik_inhibitors/output/Ibrutinib/Ibrutinib-input.mol2

> <i_m_source_file_index>
1

> <r_epik_Ionization_Penalty>
  5.8186

> <r_epik_Ionization_Penalty_Charging>
  5.8185

> <r_epik_Ionization_Penalty_Neutral>
  0.0000

> <r_epik_State_Penalty>
 10.2119

> <i_epik_Tot_Q>
0

$$$$
1-[(3~{R})-3-[4-amino-3-(4-phenoxyphenyl)pyrazolo[3,4-d]pyrimidin-1-yl]-1-piperidyl]prop-2-en-1-one
                    3D
 Structure written by MMmdl.
 57 61  0  0  1  0            999 V2000
   -0.6639    3.6948   -1.2576 C   0  0  0  0  0  0
   -0.2068    2.5735   -0.6963 C   0  0  0  0  0  0
   -1.0751    1.3796   -0.6784 C   0  0  0  0  0  0
   -2.2932    1.5610   -0.6386 O   0  0  0  0  0  0
   -0.4607    0.1313   -0.7010 N   0  0  0  0  0  0
   -1.2864   -1.0783   -0.6907 C   0  0  0  0  0  0
   -0.9264   -1.9593    0.5039 C   0  0  0  0  0  0
    0.5722   -2.2697    0.5383 C   0  0  0  0  0  0
    1.4080   -0.9758    0.4672 C   0  0  2  0  0  0
    1.2239   -0.3859    1.3772 H   0  0  0  0  0  0
    0.9856   -0.1329   -0.7484 C   0  0  0  0  0  0
    2.8968   -1.2639    0.4716 N   0  0  0  0  0  0
    3.8099   -0.8372    1.3894 C   0  0  0  0  0  0
    5.0300   -1.3448    0.9787 C   0  0  0  0  0  0
    4.7299   -2.0597   -0.1958 C   0  0  0  0  0  0
    3.4307   -2.0140   -0.5103 N   0  0  0  0  0  0
    5.6443   -2.7920   -1.0352 C   0  0  0  0  0  0
    6.2822   -2.1508   -2.0971 C   0  0  0  0  0  0
    7.1675   -2.8596   -2.9093 C   0  0  0  0  0  0
    7.4148   -4.2094   -2.6596 C   0  0  0  0  0  0
    6.7768   -4.8506   -1.5977 C   0  0  0  0  0  0
    5.8916   -4.1418   -0.7855 C   0  0  0  0  0  0
    8.2786   -4.9009   -3.4523 O   0  0  0  0  0  0
    9.2022   -5.7253   -2.8318 C   0  0  0  0  0  0
    9.4264   -7.0127   -3.3198 C   0  0  0  0  0  0
   10.3568   -7.8432   -2.6951 C   0  0  0  0  0  0
   11.0630   -7.3863   -1.5823 C   0  0  0  0  0  0
   10.8387   -6.0989   -1.0943 C   0  0  0  0  0  0
    9.9083   -5.2685   -1.7191 C   0  0  0  0  0  0
    6.1372   -1.0430    1.7646 C   0  0  0  0  0  0
    5.9709   -0.2811    2.8723 N   0  0  0  0  0  0
    4.7171    0.1476    3.1528 C   0  0  0  0  0  0
    3.5732   -0.0788    2.4715 N   0  0  0  0  0  0
    7.4200   -1.5139    1.4310 N   0  0  0  0  0  0
   -0.0324    4.5952   -1.2811 H   0  0  0  0  0  0
   -1.6722    3.7186   -1.6968 H   0  0  0  0  0  0
    0.8015    2.5497   -0.2571 H   0  0  0  0  0  0
   -2.3476   -0.7972   -0.6213 H   0  0  0  0  0  0
   -1.1172   -1.6457   -1.6178 H   0  0  0  0  0  0
   -1.1968   -1.4416    1.4360 H   0  0  0  0  0  0
   -1.4779   -2.9088    0.4386 H   0  0  0  0  0  0
    0.8163   -2.7957    1.4731 H   0  0  0  0  0  0
    0.8347   -2.9060   -0.3197 H   0  0  0  0  0  0
    1.2281   -0.6816   -1.6704 H   0  0  0  0  0  0
    1.5333    0.8210   -0.7346 H   0  0  0  0  0  0
    6.0997   -1.0992   -2.3052 H   0  0  0  0  0  0
    7.6621   -2.3547   -3.7345 H   0  0  0  0  0  0
    6.9650   -5.9021   -1.3984 H   0  0  0  0  0  0
    5.4028   -4.6557    0.0389 H   0  0  0  0  0  0
    8.8800   -7.3739   -4.1868 H   0  0  0  0  0  0
   10.5322   -8.8452   -3.0755 H   0  0  0  0  0  0
   11.7886   -8.0321   -1.0968 H   0  0  0  0  0  0
   11.3893   -5.7432   -0.2281 H   0  0  0  0  0  0
    9.7378   -4.2668   -1.3342 H   0  0  0  0  0  0
    4.6188    0.7534    4.0473 H   0  0  0  0  0  0
    8.2049   -1.2406    1.9904 H   0  0  0  0  0  0
    2.5510    0.2637    2.6902 H   0  0  0  0  0  0
  1  2  2  0  0  0
  1 35  1  0  0  0
  1 36  1  0  0  0
  2  3  1  0  0  0
  2 37  1  0  0  0
  3  4  2  0  0  0
  3  5  1  0  0  0
  5 11  1  0  0  0
  5  6  1  0  0  0
  6  7  1  0  0  0
  6 38  1  0  0  0
  6 39  1  0  0  0
  7  8  1  0  0  0
  7 40  1  0  0  0
  7 41  1  0  0  0
  8  9  1  0  0  0
  8 42  1  0  0  0
  8 43  1  0  0  0
  9 10  1  0  0  0
  9 11  1  0  0  0
  9 12  1  0  0  0
 11 44  1  0  0  0
 11 45  1  0  0  0
 12 16  1  0  0  0
 12 13  1  0  0  0
 13 33  1  0  0  0
 13 14  2  0  0  0
 14 15  1  0  0  0
 14 30  1  0  0  0
 15 16  2  0  0  0
 15 17  1  0  0  0
 17 22  2  0  0  0
 17 18  1  0  0  0
 18 19  2  0  0  0
 18 46  1  0  0  0
 19 20  1  0  0  0
 19 47  1  0  0  0
 20 21  2  0  0  0
 20 23  1  0  0  0
 21 22  1  0  0  0
 21 48  1  0  0  0
 22 49  1  0  0  0
 23 24  1  0  0  0
 24 29  2  0  0  0
 24 25  1  0  0  0
 25 26  2  0  0  0
 25 50  1  0  0  0
 26 27  1  0  0  0
 26 51  1  0  0  0
 27 28  2  0  0  0
 27 52  1  0  0  0
 28 29  1  0  0  0
 28 53  1  0  0  0
 29 54  1  0  0  0
 30 31  1  0  0  0
 30 34  2  0  0  0
 31 32  2  0  0  0
 32 33  1  0  0  0
 32 55  1  0  0  0
 33 57  1  0  0  0
 34 56  1  0  0  0
M  END
> <s_m_source_file>
/Users/andrea/Development/mcce-charges/epik_inhibitors/output/Ibrutinib/Ibrutinib-input.mol2

> <i_m_source_file_index>
1

> <r_epik_Ionization_Penalty>
  5.8186

> <r_epik_Ionization_Penalty_Charging>
  5.8185

> <r_epik_Ionization_Penalty_Neutral>
  0.0000

> <r_epik_State_Penalty>
 10.2119

> <i_epik_Tot_Q>
0

$$$$
1-[(3~{R})-3-[4-amino-3-(4-phenoxyphenyl)pyrazolo[3,4-d]pyrimidin-1-yl]-1-piperidyl]prop-2-en-1-one
                    3D
 Structure written by MMmdl.
 58 62  0  0  1  0            999 V2000
   -0.6639    3.6948   -1.2576 C   0  0  0  0  0  0
   -0.2068    2.5735   -0.6963 C   0  0  0  0  0  0
   -1.0751    1.3796   -0.6784 C   0  0  0  0  0  0
   -2.2932    1.5610   -0.6386 O   0  0  0  0  0  0
   -0.4607    0.1313   -0.7010 N   0  0  0  0  0  0
   -1.2864   -1.0783   -0.6907 C   0  0  0  0  0  0
   -0.9264   -1.9593    0.5039 C   0  0  0  0  0  0
    0.5722   -2.2697    0.5383 C   0  0  0  0  0  0
    1.4080   -0.9758    0.4672 C   0  0  2  0  0  0
    1.2239   -0.3859    1.3772 H   0  0  0  0  0  0
    0.9856   -0.1329   -0.7484 C   0  0  0  0  0  0
    2.8968   -1.2639    0.4716 N   0  0  0  0  0  0
    3.8099   -0.8372    1.3894 C   0  0  0  0  0  0
    5.0300   -1.3448    0.9787 C   0  0  0  0  0  0
    4.7299   -2.0597   -0.1958 C   0  0  0  0  0  0
    3.4307   -2.0140   -0.5103 N   0  0  0  0  0  0
    5.6443   -2.7920   -1.0352 C   0  0  0  0  0  0
    6.2822   -2.1508   -2.0971 C   0  0  0  0  0  0
    7.1675   -2.8596   -2.9093 C   0  0  0  0  0  0
    7.4148   -4.2094   -2.6596 C   0  0  0  0  0  0
    6.7768   -4.8506   -1.5977 C   0  0  0  0  0  0
    5.8916   -4.1418   -0.7855 C   0  0  0  0  0  0
    8.2786   -4.9009   -3.4523 O   0  0  0  0  0  0
    9.2022   -5.7253   -2.8318 C   0  0  0  0  0  0
    9.4264   -7.0127   -3.3198 C   0  0  0  0  0  0
   10.3568   -7.8432   -2.6951 C   0  0  0  0  0  0
   11.0630   -7.3863   -1.5823 C   0  0  0  0  0  0
   10.8387   -6.0989   -1.0943 C   0  0  0  0  0  0
    9.9083   -5.2685   -1.7191 C   0  0  0  0  0  0
    6.1372   -1.0430    1.7646 C   0  0  0  0  0  0
    5.9709   -0.2811    2.8723 N   0  0  0  0  0  0
    4.7171    0.1476    3.1528 C   0  0  0  0  0  0
    3.5732   -0.0788    2.4715 N   0  0  0  0  0  0
    7.4200   -1.5139    1.4310 N   0  3  0  0  0  0
   -0.0324    4.5952   -1.2811 H   0  0  0  0  0  0
   -1.6722    3.7186   -1.6968 H   0  0  0  0  0  0
    0.8015    2.5497   -0.2571 H   0  0  0  0  0  0
   -2.3476   -0.7972   -0.6213 H   0  0  0  0  0  0
   -1.1172   -1.6457   -1.6178 H   0  0  0  0  0  0
   -1.1968   -1.4416    1.4360 H   0  0  0  0  0  0
   -1.4779   -2.9088    0.4386 H   0  0  0  0  0  0
    0.8163   -2.7957    1.4731 H   0  0  0  0  0  0
    0.8347   -2.9060   -0.3197 H   0  0  0  0  0  0
    1.2281   -0.6816   -1.6704 H   0  0  0  0  0  0
    1.5333    0.8210   -0.7346 H   0  0  0  0  0  0
    6.0997   -1.0992   -2.3052 H   0  0  0  0  0  0
    7.6621   -2.3547   -3.7345 H   0  0  0  0  0  0
    6.9650   -5.9021   -1.3984 H   0  0  0  0  0  0
    5.4028   -4.6557    0.0389 H   0  0  0  0  0  0
    8.8800   -7.3739   -4.1868 H   0  0  0  0  0  0
   10.5322   -8.8452   -3.0755 H   0  0  0  0  0  0
   11.7886   -8.0321   -1.0968 H   0  0  0  0  0  0
   11.3893   -5.7432   -0.2281 H   0  0  0  0  0  0
    9.7378   -4.2668   -1.3342 H   0  0  0  0  0  0
    4.6188    0.7534    4.0473 H   0  0  0  0  0  0
    8.1457   -1.1623    2.1792 H   0  0  0  0  0  0
    7.7034   -1.1338    0.4384 H   0  0  0  0  0  0
    7.4140   -2.6138    1.4145 H   0  0  0  0  0  0
  1  2  2  0  0  0
  1 35  1  0  0  0
  1 36  1  0  0  0
  2  3  1  0  0  0
  2 37  1  0  0  0
  3  4  2  0  0  0
  3  5  1  0  0  0
  5 11  1  0  0  0
  5  6  1  0  0  0
  6  7  1  0  0  0
  6 38  1  0  0  0
  6 39  1  0  0  0
  7  8  1  0  0  0
  7 40  1  0  0  0
  7 41  1  0  0  0
  8  9  1  0  0  0
  8 42  1  0  0  0
  8 43  1  0  0  0
  9 10  1  0  0  0
  9 11  1  0  0  0
  9 12  1  0  0  0
 11 44  1  0  0  0
 11 45  1  0  0  0
 12 16  1  0  0  0
 12 13  1  0  0  0
 13 33  2  0  0  0
 13 14  1  0  0  0
 14 15  1  0  0  0
 14 30  2  0  0  0
 15 16  2  0  0  0
 15 17  1  0  0  0
 17 22  2  0  0  0
 17 18  1  0  0  0
 18 19  2  0  0  0
 18 46  1  0  0  0
 19 20  1  0  0  0
 19 47  1  0  0  0
 20 21  2  0  0  0
 20 23  1  0  0  0
 21 22  1  0  0  0
 21 48  1  0  0  0
 22 49  1  0  0  0
 23 24  1  0  0  0
 24 29  2  0  0  0
 24 25  1  0  0  0
 25 26  2  0  0  0
 25 50  1  0  0  0
 26 27  1  0  0  0
 26 51  1  0  0  0
 27 28  2  0  0  0
 27 52  1  0  0  0
 28 29  1  0  0  0
 28 53  1  0  0  0
 29 54  1  0  0  0
 30 31  1  0  0  0
 30 34  1  0  0  0
 31 32  2  0  0  0
 32 33  1  0  0  0
 32 55  1  0  0  0
 34 56  1  0  0  0
 34 57  1  0  0  0
 34 58  1  0  0  0
M  CHG  1  34   1
M  END
> <s_m_source_file>
/Users/andrea/Development/mcce-charges/epik_inhibitors/output/Ibrutinib/Ibrutinib-input.mol2

> <i_m_source_file_index>
1

> <r_epik_Ionization_Penalty>
  7.8939

> <r_epik_Ionization_Penalty_Charging>
  7.8939

> <r_epik_Ionization_Penalty_Neutral>
  0.0000

> <r_epik_State_Penalty>
 11.0389

> <i_epik_Tot_Q>
1

$$$$
1-[(3~{R})-3-[4-amino-3-(4-phenoxyphenyl)pyrazolo[3,4-d]pyrimidin-1-yl]-1-piperidyl]prop-2-en-1-one
                    3D
 Structure written by MMmdl.
 57 61  0  0  1  0            999 V2000
   -0.6639    3.6948   -1.2576 C   0  0  0  0  0  0
   -0.2068    2.5735   -0.6963 C   0  0  0  0  0  0
   -1.0751    1.3796   -0.6784 C   0  0  0  0  0  0
   -2.2932    1.5610   -0.6386 O   0  0  0  0  0  0
   -0.4607    0.1313   -0.7010 N   0  0  0  0  0  0
   -1.2864   -1.0783   -0.6907 C   0  0  0  0  0  0
   -0.9264   -1.9593    0.5039 C   0  0  0  0  0  0
    0.5722   -2.2697    0.5383 C   0  0  0  0  0  0
    1.4080   -0.9758    0.4672 C   0  0  2  0  0  0
    1.2239   -0.3859    1.3772 H   0  0  0  0  0  0
    0.9856   -0.1329   -0.7484 C   0  0  0  0  0  0
    2.8968   -1.2639    0.4716 N   0  0  0  0  0  0
    3.8099   -0.8372    1.3894 C   0  0  0  0  0  0
    5.0300   -1.3448    0.9787 C   0  0  0  0  0  0
    4.7299   -2.0597   -0.1958 C   0  0  0  0  0  0
    3.4307   -2.0140   -0.5103 N   0  0  0  0  0  0
    5.6443   -2.7920   -1.0352 C   0  0  0  0  0  0
    6.2822   -2.1508   -2.0971 C   0  0  0  0  0  0
    7.1675   -2.8596   -2.9093 C   0  0  0  0  0  0
    7.4148   -4.2094   -2.6596 C   0  0  0  0  0  0
    6.7768   -4.8506   -1.5977 C   0  0  0  0  0  0
    5.8916   -4.1418   -0.7855 C   0  0  0  0  0  0
    8.2786   -4.9009   -3.4523 O   0  0  0  0  0  0
    9.2022   -5.7253   -2.8318 C   0  0  0  0  0  0
    9.4264   -7.0127   -3.3198 C   0  0  0  0  0  0
   10.3568   -7.8432   -2.6951 C   0  0  0  0  0  0
   11.0630   -7.3863   -1.5823 C   0  0  0  0  0  0
   10.8387   -6.0989   -1.0943 C   0  0  0  0  0  0
    9.9083   -5.2685   -1.7191 C   0  0  0  0  0  0
    6.1372   -1.0430    1.7646 C   0  0  0  0  0  0
    5.9709   -0.2811    2.8723 N   0  0  0  0  0  0
    4.7171    0.1476    3.1528 C   0  0  0  0  0  0
    3.5732   -0.0788    2.4715 N   0  0  0  0  0  0
    7.4200   -1.5139    1.4310 N   0  0  0  0  0  0
   -0.0324    4.5952   -1.2811 H   0  0  0  0  0  0
   -1.6722    3.7186   -1.6968 H   0  0  0  0  0  0
    0.8015    2.5497   -0.2571 H   0  0  0  0  0  0
   -2.3476   -0.7972   -0.6213 H   0  0  0  0  0  0
   -1.1172   -1.6457   -1.6178 H   0  0  0  0  0  0
   -1.1968   -1.4416    1.4360 H   0  0  0  0  0  0
   -1.4779   -2.9088    0.4386 H   0  0  0  0  0  0
    0.8163   -2.7957    1.4731 H   0  0  0  0  0  0
    0.8347   -2.9060   -0.3197 H   0  0  0  0  0  0
    1.2281   -0.6816   -1.6704 H   0  0  0  0  0  0
    1.5333    0.8210   -0.7346 H   0  0  0  0  0  0
    6.0997   -1.0992   -2.3052 H   0  0  0  0  0  0
    7.6621   -2.3547   -3.7345 H   0  0  0  0  0  0
    6.9650   -5.9021   -1.3984 H   0  0  0  0  0  0
    5.4028   -4.6557    0.0389 H   0  0  0  0  0  0
    8.8800   -7.3739   -4.1868 H   0  0  0  0  0  0
   10.5322   -8.8452   -3.0755 H   0  0  0  0  0  0
   11.7886   -8.0321   -1.0968 H   0  0  0  0  0  0
   11.3893   -5.7432   -0.2281 H   0  0  0  0  0  0
    9.7378   -4.2668   -1.3342 H   0  0  0  0  0  0
    4.6188    0.7534    4.0473 H   0  0  0  0  0  0
    7.5470   -2.0377    0.5866 H   0  0  0  0  0  0
    6.8364   -0.0332    3.5044 H   0  0  0  0  0  0
  1  2  2  0  0  0
  1 35  1  0  0  0
  1 36  1  0  0  0
  2  3  1  0  0  0
  2 37  1  0  0  0
  3  4  2  0  0  0
  3  5  1  0  0  0
  5 11  1  0  0  0
  5  6  1  0  0  0
  6  7  1  0  0  0
  6 38  1  0  0  0
  6 39  1  0  0  0
  7  8  1  0  0  0
  7 40  1  0  0  0
  7 41  1  0  0  0
  8  9  1  0  0  0
  8 42  1  0  0  0
  8 43  1  0  0  0
  9 10  1  0  0  0
  9 11  1  0  0  0
  9 12  1  0  0  0
 11 44  1  0  0  0
 11 45  1  0  0  0
 12 16  1  0  0  0
 12 13  1  0  0  0
 13 33  1  0  0  0
 13 14  2  0  0  0
 14 15  1  0  0  0
 14 30  1  0  0  0
 15 16  2  0  0  0
 15 17  1  0  0  0
 17 22  2  0  0  0
 17 18  1  0  0  0
 18 19  2  0  0  0
 18 46  1  0  0  0
 19 20  1  0  0  0
 19 47  1  0  0  0
 20 21  2  0  0  0
 20 23  1  0  0  0
 21 22  1  0  0  0
 21 48  1  0  0  0
 22 49  1  0  0  0
 23 24  1  0  0  0
 24 29  2  0  0  0
 24 25  1  0  0  0
 25 26  2  0  0  0
 25 50  1  0  0  0
 26 27  1  0  0  0
 26 51  1  0  0  0
 27 28  2  0  0  0
 27 52  1  0  0  0
 28 29  1  0  0  0
 28 53  1  0  0  0
 29 54  1  0  0  0
 30 31  1  0  0  0
 30 34  2  0  0  0
 31 32  1  0  0  0
 31 57  1  0  0  0
 32 33  2  0  0  0
 32 55  1  0  0  0
 34 56  1  0  0  0
M  END
> <s_m_source_file>
/Users/andrea/Development/mcce-charges/epik_inhibitors/output/Ibrutinib/Ibrutinib-input.mol2

> <i_m_source_file_index>
1

> <r_epik_Ionization_Penalty>
  7.4597

> <r_epik_Ionization_Penalty_Charging>
  7.4591

> <r_epik_Ionization_Penalty_Neutral>
  0.0006

> <r_epik_State_Penalty>
 11.3559

> <i_epik_Tot_Q>
0

$$$$
1-[(3~{R})-3-[4-amino-3-(4-phenoxyphenyl)pyrazolo[3,4-d]pyrimidin-1-yl]-1-piperidyl]prop-2-en-1-one
                    3D
 Structure written by MMmdl.
 57 61  0  0  1  0            999 V2000
   -0.6639    3.6948   -1.2576 C   0  0  0  0  0  0
   -0.2068    2.5735   -0.6963 C   0  0  0  0  0  0
   -1.0751    1.3796   -0.6784 C   0  0  0  0  0  0
   -2.2932    1.5610   -0.6386 O   0  0  0  0  0  0
   -0.4607    0.1313   -0.7010 N   0  0  0  0  0  0
   -1.2864   -1.0783   -0.6907 C   0  0  0  0  0  0
   -0.9264   -1.9593    0.5039 C   0  0  0  0  0  0
    0.5722   -2.2697    0.5383 C   0  0  0  0  0  0
    1.4080   -0.9758    0.4672 C   0  0  2  0  0  0
    1.2239   -0.3859    1.3772 H   0  0  0  0  0  0
    0.9856   -0.1329   -0.7484 C   0  0  0  0  0  0
    2.8968   -1.2639    0.4716 N   0  0  0  0  0  0
    3.8099   -0.8372    1.3894 C   0  0  0  0  0  0
    5.0300   -1.3448    0.9787 C   0  0  0  0  0  0
    4.7299   -2.0597   -0.1958 C   0  0  0  0  0  0
    3.4307   -2.0140   -0.5103 N   0  0  0  0  0  0
    5.6443   -2.7920   -1.0352 C   0  0  0  0  0  0
    6.2822   -2.1508   -2.0971 C   0  0  0  0  0  0
    7.1675   -2.8596   -2.9093 C   0  0  0  0  0  0
    7.4148   -4.2094   -2.6596 C   0  0  0  0  0  0
    6.7768   -4.8506   -1.5977 C   0  0  0  0  0  0
    5.8916   -4.1418   -0.7855 C   0  0  0  0  0  0
    8.2786   -4.9009   -3.4523 O   0  0  0  0  0  0
    9.2022   -5.7253   -2.8318 C   0  0  0  0  0  0
    9.4264   -7.0127   -3.3198 C   0  0  0  0  0  0
   10.3568   -7.8432   -2.6951 C   0  0  0  0  0  0
   11.0630   -7.3863   -1.5823 C   0  0  0  0  0  0
   10.8387   -6.0989   -1.0943 C   0  0  0  0  0  0
    9.9083   -5.2685   -1.7191 C   0  0  0  0  0  0
    6.1372   -1.0430    1.7646 C   0  0  0  0  0  0
    5.9709   -0.2811    2.8723 N   0  0  0  0  0  0
    4.7171    0.1476    3.1528 C   0  0  0  0  0  0
    3.5732   -0.0788    2.4715 N   0  0  0  0  0  0
    7.4200   -1.5139    1.4310 N   0  0  0  0  0  0
   -0.0324    4.5952   -1.2811 H   0  0  0  0  0  0
   -1.6722    3.7186   -1.6968 H   0  0  0  0  0  0
    0.8015    2.5497   -0.2571 H   0  0  0  0  0  0
   -2.3476   -0.7972   -0.6213 H   0  0  0  0  0  0
   -1.1172   -1.6457   -1.6178 H   0  0  0  0  0  0
   -1.1968   -1.4416    1.4360 H   0  0  0  0  0  0
   -1.4779   -2.9088    0.4386 H   0  0  0  0  0  0
    0.8163   -2.7957    1.4731 H   0  0  0  0  0  0
    0.8347   -2.9060   -0.3197 H   0  0  0  0  0  0
    1.2281   -0.6816   -1.6704 H   0  0  0  0  0  0
    1.5333    0.8210   -0.7346 H   0  0  0  0  0  0
    6.0997   -1.0992   -2.3052 H   0  0  0  0  0  0
    7.6621   -2.3547   -3.7345 H   0  0  0  0  0  0
    6.9650   -5.9021   -1.3984 H   0  0  0  0  0  0
    5.4028   -4.6557    0.0389 H   0  0  0  0  0  0
    8.8800   -7.3739   -4.1868 H   0  0  0  0  0  0
   10.5322   -8.8452   -3.0755 H   0  0  0  0  0  0
   11.7886   -8.0321   -1.0968 H   0  0  0  0  0  0
   11.3893   -5.7432   -0.2281 H   0  0  0  0  0  0
    9.7378   -4.2668   -1.3342 H   0  0  0  0  0  0
    4.6188    0.7534    4.0473 H   0  0  0  0  0  0
    8.2049   -1.2406    1.9904 H   0  0  0  0  0  0
    6.8364   -0.0332    3.5044 H   0  0  0  0  0  0
  1  2  2  0  0  0
  1 35  1  0  0  0
  1 36  1  0  0  0
  2  3  1  0  0  0
  2 37  1  0  0  0
  3  4  2  0  0  0
  3  5  1  0  0  0
  5 11  1  0  0  0
  5  6  1  0  0  0
  6  7  1  0  0  0
  6 38  1  0  0  0
  6 39  1  0  0  0
  7  8  1  0  0  0
  7 40  1  0  0  0
  7 41  1  0  0  0
  8  9  1  0  0  0
  8 42  1  0  0  0
  8 43  1  0  0  0
  9 10  1  0  0  0
  9 11  1  0  0  0
  9 12  1  0  0  0
 11 44  1  0  0  0
 11 45  1  0  0  0
 12 16  1  0  0  0
 12 13  1  0  0  0
 13 33  1  0  0  0
 13 14  2  0  0  0
 14 15  1  0  0  0
 14 30  1  0  0  0
 15 16  2  0  0  0
 15 17  1  0  0  0
 17 22  2  0  0  0
 17 18  1  0  0  0
 18 19  2  0  0  0
 18 46  1  0  0  0
 19 20  1  0  0  0
 19 47  1  0  0  0
 20 21  2  0  0  0
 20 23  1  0  0  0
 21 22  1  0  0  0
 21 48  1  0  0  0
 22 49  1  0  0  0
 23 24  1  0  0  0
 24 29  2  0  0  0
 24 25  1  0  0  0
 25 26  2  0  0  0
 25 50  1  0  0  0
 26 27  1  0  0  0
 26 51  1  0  0  0
 27 28  2  0  0  0
 27 52  1  0  0  0
 28 29  1  0  0  0
 28 53  1  0  0  0
 29 54  1  0  0  0
 30 31  1  0  0  0
 30 34  2  0  0  0
 31 32  1  0  0  0
 31 57  1  0  0  0
 32 33  2  0  0  0
 32 55  1  0  0  0
 34 56  1  0  0  0
M  END
> <s_m_source_file>
/Users/andrea/Development/mcce-charges/epik_inhibitors/output/Ibrutinib/Ibrutinib-input.mol2

> <i_m_source_file_index>
1

> <r_epik_Ionization_Penalty>
  7.4597

> <r_epik_Ionization_Penalty_Charging>
  7.4591

> <r_epik_Ionization_Penalty_Neutral>
  0.0006

> <r_epik_State_Penalty>
 11.3559

> <i_epik_Tot_Q>
0

$$$$
1-[(3~{R})-3-[4-amino-3-(4-phenoxyphenyl)pyrazolo[3,4-d]pyrimidin-1-yl]-1-piperidyl]prop-2-en-1-one
                    3D
 Structure written by MMmdl.
 58 62  0  0  1  0            999 V2000
   -0.6639    3.6948   -1.2576 C   0  0  0  0  0  0
   -0.2068    2.5735   -0.6963 C   0  0  0  0  0  0
   -1.0751    1.3796   -0.6784 C   0  0  0  0  0  0
   -2.2932    1.5610   -0.6386 O   0  3  0  0  0  0
   -0.4607    0.1313   -0.7010 N   0  0  0  0  0  0
   -1.2864   -1.0783   -0.6907 C   0  0  0  0  0  0
   -0.9264   -1.9593    0.5039 C   0  0  0  0  0  0
    0.5722   -2.2697    0.5383 C   0  0  0  0  0  0
    1.4080   -0.9758    0.4672 C   0  0  2  0  0  0
    1.2239   -0.3859    1.3772 H   0  0  0  0  0  0
    0.9856   -0.1329   -0.7484 C   0  0  0  0  0  0
    2.8968   -1.2639    0.4716 N   0  0  0  0  0  0
    3.8099   -0.8372    1.3894 C   0  0  0  0  0  0
    5.0300   -1.3448    0.9787 C   0  0  0  0  0  0
    4.7299   -2.0597   -0.1958 C   0  0  0  0  0  0
    3.4307   -2.0140   -0.5103 N   0  0  0  0  0  0
    5.6443   -2.7920   -1.0352 C   0  0  0  0  0  0
    6.2822   -2.1508   -2.0971 C   0  0  0  0  0  0
    7.1675   -2.8596   -2.9093 C   0  0  0  0  0  0
    7.4148   -4.2094   -2.6596 C   0  0  0  0  0  0
    6.7768   -4.8506   -1.5977 C   0  0  0  0  0  0
    5.8916   -4.1418   -0.7855 C   0  0  0  0  0  0
    8.2786   -4.9009   -3.4523 O   0  0  0  0  0  0
    9.2022   -5.7253   -2.8318 C   0  0  0  0  0  0
    9.4264   -7.0127   -3.3198 C   0  0  0  0  0  0
   10.3568   -7.8432   -2.6951 C   0  0  0  0  0  0
   11.0630   -7.3863   -1.5823 C   0  0  0  0  0  0
   10.8387   -6.0989   -1.0943 C   0  0  0  0  0  0
    9.9083   -5.2685   -1.7191 C   0  0  0  0  0  0
    6.1372   -1.0430    1.7646 C   0  0  0  0  0  0
    5.9709   -0.2811    2.8723 N   0  0  0  0  0  0
    4.7171    0.1476    3.1528 C   0  0  0  0  0  0
    3.5732   -0.0788    2.4715 N   0  0  0  0  0  0
    7.4200   -1.5139    1.4310 N   0  0  0  0  0  0
   -0.0324    4.5952   -1.2811 H   0  0  0  0  0  0
   -1.6722    3.7186   -1.6968 H   0  0  0  0  0  0
    0.8015    2.5497   -0.2571 H   0  0  0  0  0  0
   -2.3476   -0.7972   -0.6213 H   0  0  0  0  0  0
   -1.1172   -1.6457   -1.6178 H   0  0  0  0  0  0
   -1.1968   -1.4416    1.4360 H   0  0  0  0  0  0
   -1.4779   -2.9088    0.4386 H   0  0  0  0  0  0
    0.8163   -2.7957    1.4731 H   0  0  0  0  0  0
    0.8347   -2.9060   -0.3197 H   0  0  0  0  0  0
    1.2281   -0.6816   -1.6704 H   0  0  0  0  0  0
    1.5333    0.8210   -0.7346 H   0  0  0  0  0  0
    6.0997   -1.0992   -2.3052 H   0  0  0  0  0  0
    7.6621   -2.3547   -3.7345 H   0  0  0  0  0  0
    6.9650   -5.9021   -1.3984 H   0  0  0  0  0  0
    5.4028   -4.6557    0.0389 H   0  0  0  0  0  0
    8.8800   -7.3739   -4.1868 H   0  0  0  0  0  0
   10.5322   -8.8452   -3.0755 H   0  0  0  0  0  0
   11.7886   -8.0321   -1.0968 H   0  0  0  0  0  0
   11.3893   -5.7432   -0.2281 H   0  0  0  0  0  0
    9.7378   -4.2668   -1.3342 H   0  0  0  0  0  0
    4.6188    0.7534    4.0473 H   0  0  0  0  0  0
    8.2810   -1.2624    2.0677 H   0  0  0  0  0  0
    7.5622   -2.1337    0.5334 H   0  0  0  0  0  0
   -2.9773    0.6998   -0.6239 H   0  0  0  0  0  0
  1  2  2  0  0  0
  1 35  1  0  0  0
  1 36  1  0  0  0
  2  3  1  0  0  0
  2 37  1  0  0  0
  3  4  2  0  0  0
  3  5  1  0  0  0
  4 58  1  0  0  0
  5 11  1  0  0  0
  5  6  1  0  0  0
  6  7  1  0  0  0
  6 38  1  0  0  0
  6 39  1  0  0  0
  7  8  1  0  0  0
  7 40  1  0  0  0
  7 41  1  0  0  0
  8  9  1  0  0  0
  8 42  1  0  0  0
  8 43  1  0  0  0
  9 10  1  0  0  0
  9 11  1  0  0  0
  9 12  1  0  0  0
 11 44  1  0  0  0
 11 45  1  0  0  0
 12 16  1  0  0  0
 12 13  1  0  0  0
 13 33  2  0  0  0
 13 14  1  0  0  0
 14 15  1  0  0  0
 14 30  2  0  0  0
 15 16  2  0  0  0
 15 17  1  0  0  0
 17 22  2  0  0  0
 17 18  1  0  0  0
 18 19  2  0  0  0
 18 46  1  0  0  0
 19 20  1  0  0  0
 19 47  1  0  0  0
 20 21  2  0  0  0
 20 23  1  0  0  0
 21 22  1  0  0  0
 21 48  1  0  0  0
 22 49  1  0  0  0
 23 24  1  0  0  0
 24 29  2  0  0  0
 24 25  1  0  0  0
 25 26  2  0  0  0
 25 50  1  0  0  0
 26 27  1  0  0  0
 26 51  1  0  0  0
 27 28  2  0  0  0
 27 52  1  0  0  0
 28 29  1  0  0  0
 28 53  1  0  0  0
 29 54  1  0  0  0
 30 31  1  0  0  0
 30 34  1  0  0  0
 31 32  2  0  0  0
 32 33  1  0  0  0
 32 55  1  0  0  0
 34 56  1  0  0  0
 34 57  1  0  0  0
M  CHG  1   4   1
M  END
> <s_m_source_file>
/Users/andrea/Development/mcce-charges/epik_inhibitors/output/Ibrutinib/Ibrutinib-input.mol2

> <i_m_source_file_index>
1

> <r_epik_Ionization_Penalty>
  8.0678

> <r_epik_Ionization_Penalty_Charging>
  8.0169

> <r_epik_Ionization_Penalty_Neutral>
  0.0509

> <r_epik_State_Penalty>
 11.5261

> <i_epik_Tot_Q>
1

$$$$
