@<TRIPOS>MOLECULE
1-[(3~{R})-3-[4-amino-3-(4-phenoxyphenyl)pyrazolo[3,4-d]pyrimidin-1-yl]-1-piperidyl]prop-2-en-1-one
   57    61     0     0     0
SMALL
USER_CHARGES

@<TRIPOS>ATOM
      1 C1         -0.6559    3.7168   -1.2104 C.2       1 IBR        -0.1562
      2 C2         -0.2042    2.5907   -0.6542 C.2       1 IBR        -0.2198
      3 C3         -1.0672    1.3929   -0.6671 C.2       1 IBR         0.6572
      4 O1         -2.2866    1.5686   -0.6480 O.2       1 IBR        -0.5974
      5 N1         -0.4468    0.1476   -0.6935 N.am      1 IBR        -0.4709
      6 C4         -1.2672   -1.0653   -0.7164 C.3       1 IBR         0.0935
      7 C5         -0.9264   -1.9628    0.4715 C.3       1 IBR        -0.0996
      8 C6          0.5725   -2.2681    0.5290 C.3       1 IBR        -0.1009
      9 C7          1.4045   -0.9701    0.4931 C.3       1 IBR         0.2410
     10 H1          1.2295   -0.3988    1.4276 H         1 IBR         0.0798
     11 C8          1.0013   -0.1098   -0.7169 C.3       1 IBR         0.0810
     12 N2          2.8944   -1.2506    0.5186 N.pl3     1 IBR        -0.4004
     13 C9          3.7893   -0.8338    1.4587 C.ar      1 IBR         0.6068
     14 C10         5.0191   -1.3285    1.0613 C.ar      1 IBR        -0.5012
     15 C11         4.7431   -2.0260   -0.1295 C.2       1 IBR         0.4203
     16 N3          3.4493   -1.9820   -0.4657 N.2       1 IBR        -0.4085
     17 C12         5.6758   -2.7400   -0.9645 C.ar      1 IBR        -0.1311
     18 C13         6.3284   -2.0787   -2.0049 C.ar      1 IBR        -0.0890
     19 C14         7.2314   -2.7697   -2.8128 C.ar      1 IBR        -0.1577
     20 C15         7.4817   -4.1221   -2.5804 C.ar      1 IBR         0.1068
     21 C16         6.8291   -4.7834   -1.5400 C.ar      1 IBR        -0.1577
     22 C17         5.9261   -4.0924   -0.7321 C.ar      1 IBR        -0.0890
     23 O2          8.3628   -4.7963   -3.3689 O.3       1 IBR        -0.2520
     24 C18         9.2800   -5.6258   -2.7458 C.ar      1 IBR         0.0911
     25 C19         9.5197   -6.9040   -3.2503 C.ar      1 IBR        -0.1482
     26 C20        10.4437   -7.7395   -2.6229 C.ar      1 IBR        -0.1123
     27 C21        11.1281   -7.2969   -1.4909 C.ar      1 IBR        -0.1428
     28 C22        10.8884   -6.0187   -0.9864 C.ar      1 IBR        -0.1123
     29 C23         9.9644   -5.1832   -1.6138 C.ar      1 IBR        -0.1482
     30 C24         6.1109   -1.0336    1.8709 C.ar      1 IBR         0.7705
     31 N4          5.9213   -0.2905    2.9875 N.ar      1 IBR        -0.8031
     32 C25         4.6606    0.1272    3.2531 C.ar      1 IBR         0.6966
     33 N5          3.5299   -0.0942    2.5485 N.ar      1 IBR        -0.7451
     34 N6          7.4018   -1.4924    1.5521 N.pl3     1 IBR        -0.9643
     35 H2         -0.0686    4.6286   -1.2319 H         1 IBR         0.1245
     36 H3         -1.6418    3.7430   -1.6624 H         1 IBR         0.1245
     37 H4          0.7731    2.5253   -0.1941 H         1 IBR         0.1434
     38 H5         -2.3331   -0.8172   -0.6955 H         1 IBR         0.0515
     39 H6         -1.0684   -1.5835   -1.6619 H         1 IBR         0.0515
     40 H7         -1.2247   -1.4636    1.4018 H         1 IBR         0.0541
     41 H8         -1.4936   -2.8977    0.4074 H         1 IBR         0.0541
     42 H9          0.7996   -2.8370    1.4387 H         1 IBR         0.0648
     43 H10         0.8448   -2.9112   -0.3184 H         1 IBR         0.0648
     44 H11         1.5879    0.8098   -0.7479 H         1 IBR         0.0846
     45 H12         1.2194   -0.6385   -1.6545 H         1 IBR         0.0846
     46 H13         6.1437   -1.0248   -2.1993 H         1 IBR         0.1484
     47 H14         7.7374   -2.2491   -3.6212 H         1 IBR         0.1543
     48 H15         7.0195   -5.8371   -1.3543 H         1 IBR         0.1543
     49 H16         5.4260   -4.6219    0.0754 H         1 IBR         0.1484
     50 H17         8.9903   -7.2540   -4.1322 H         1 IBR         0.1502
     51 H18        10.6311   -8.7344   -3.0161 H         1 IBR         0.1364
     52 H19        11.8487   -7.9466   -1.0032 H         1 IBR         0.1349
     53 H20        11.4221   -5.6740   -0.1053 H         1 IBR         0.1364
     54 H21         9.7819   -4.1886   -1.2161 H         1 IBR         0.1502
     55 H22         4.5436    0.7181    4.1553 H         1 IBR         0.0515
     56 H23         8.1754   -1.2241    2.1293 H         1 IBR         0.4478
     57 H24         7.5461   -2.0020    0.7017 H         1 IBR         0.4478
@<TRIPOS>BOND
     1    1    2 2
     2    2    3 1
     3    3    4 2
     4    3    5 am
     5    5   11 1
     6    5    6 1
     7    6    7 1
     8    7    8 1
     9    8    9 1
    10    9   10 1
    11    9   11 1
    12    9   12 1
    13   12   16 1
    14   12   13 1
    15   13   33 ar
    16   13   14 ar
    17   14   15 1
    18   15   16 2
    19   15   17 1
    20   17   22 ar
    21   17   18 ar
    22   18   19 ar
    23   19   20 ar
    24   20   21 ar
    25   21   22 ar
    26   20   23 1
    27   23   24 1
    28   24   29 ar
    29   24   25 ar
    30   25   26 ar
    31   26   27 ar
    32   27   28 ar
    33   28   29 ar
    34   14   30 ar
    35   30   31 ar
    36   31   32 ar
    37   32   33 ar
    38   30   34 1
    39    1   35 1
    40    1   36 1
    41    2   37 1
    42    6   38 1
    43    6   39 1
    44    7   40 1
    45    7   41 1
    46    8   42 1
    47    8   43 1
    48   11   44 1
    49   11   45 1
    50   18   46 1
    51   19   47 1
    52   21   48 1
    53   22   49 1
    54   25   50 1
    55   26   51 1
    56   27   52 1
    57   28   53 1
    58   29   54 1
    59   32   55 1
    60   34   56 1
    61   34   57 1
