@<TRIPOS>MOLECULE
~{N}1-[4-[(6,7-dimethoxy-4-quinolyl)oxy]phenyl]-~{N}1'-(4-fluorophenyl)cyclopropane-1,1-dicarboxamide
62   66    1
SMALL
USER_CHARGES


@<TRIPOS>ATOM
      1 C1          0.6581    5.3258    3.4394 C.3       1 CAB         0.1190 
      2 O1         -0.7597    5.2342    3.3634 O.3       1 CAB        -0.3424 
      3 C2         -1.3950    6.1738    2.6108 C.ar      1 CAB         0.0732 
      4 C3         -1.6183    5.9369    1.2575 C.ar      1 CAB        -0.0985 
      5 C4         -2.2725    6.8963    0.4661 C.ar      1 CAB        -0.1570 
      6 C5         -2.5102    6.6837   -0.8986 C.ar      1 CAB         0.1742 
      7 C6         -3.1587    7.6508   -1.6529 C.ar      1 CAB        -0.3336 
      8 C7         -3.5497    8.8068   -1.0083 C.ar      1 CAB         0.4424 
      9 N1         -3.3398    9.0510    0.3055 N.pl3     1 CAB        -0.6774 
     10 C8         -2.7101    8.1107    1.0351 C.ar      1 CAB         0.4164 
     11 C9         -2.4739    8.3213    2.3908 C.ar      1 CAB        -0.1878 
     12 C10        -1.8235    7.3676    3.1778 C.ar      1 CAB         0.1013 
     13 O2         -1.6160    7.6211    4.5002 O.3       1 CAB        -0.3431 
     14 C11        -2.6361    7.2080    5.4072 C.3       1 CAB         0.1187 
     15 O3         -2.1171    5.5352   -1.5219 O.3       1 CAB        -0.2423 
     16 C12        -1.2282    5.6507   -2.5753 C.ar      1 CAB         0.0433 
     17 C13        -1.4434    4.9317   -3.7511 C.ar      1 CAB        -0.1009 
     18 C14        -0.5470    5.0476   -4.8135 C.ar      1 CAB        -0.1608 
     19 C15         0.5647    5.8825   -4.7001 C.ar      1 CAB         0.0752 
     20 C16         0.7799    6.6014   -3.5242 C.ar      1 CAB        -0.1608 
     21 C17        -0.1165    6.4855   -2.4619 C.ar      1 CAB        -0.1009 
     22 N2          1.4633    5.9956   -5.7613 N.am      1 CAB        -0.4555 
     23 C18         2.6251    6.7759   -5.8319 C.2       1 CAB         0.7159 
     24 O4          3.0814    7.5142   -4.9648 O.2       1 CAB        -0.5667 
     25 C19         3.3240    6.6195   -7.1590 C.3       1 CAB        -0.2931 
     26 C20         4.7806    6.2483   -7.0927 C.3       1 CAB        -0.0987 
     27 C21         3.7703    5.2245   -7.5039 C.3       1 CAB        -0.0987 
     28 C22         2.8751    7.4974   -8.2428 C.2       1 CAB         0.7122 
     29 O5          2.4069    7.0561   -9.3136 O.2       1 CAB        -0.5782 
     30 N3          3.0352    8.8601   -7.9398 N.am      1 CAB        -0.4687 
     31 C23         2.7197    9.9928   -8.7271 C.ar      1 CAB         0.0534 
     32 C24         2.9598   11.2748   -8.2326 C.ar      1 CAB        -0.1418 
     33 C25         2.6482   12.3913   -9.0085 C.ar      1 CAB        -0.1381 
     34 C26         2.0964   12.2258  -10.2789 C.ar      1 CAB         0.1021 
     35 C27         1.8562   10.9438  -10.7733 C.ar      1 CAB        -0.1381 
     36 C28         2.1678    9.8273   -9.9974 C.ar      1 CAB        -0.1418 
     37 F1          1.7947   13.2980  -11.0228 F         1 CAB        -0.1392 
     38 H1          1.0445    4.5140    4.0732 H         1 CAB         0.0438 
     39 H2          0.9400    6.2962    3.8740 H         1 CAB         0.0438 
     40 H3          1.0858    5.2380    2.4298 H         1 CAB         0.0438 
     41 H4         -1.2771    4.9976    0.8271 H         1 CAB         0.1627 
     42 H5         -3.3544    7.5096   -2.7099 H         1 CAB         0.1574 
     43 H6         -4.0614    9.5977   -1.5470 H         1 CAB         0.0231 
     44 H7         -2.8032    9.2509    2.8530 H         1 CAB         0.1652 
     45 H8         -2.3425    7.4717    6.4340 H         1 CAB         0.0442 
     46 H9         -2.7734    6.1191    5.3333 H         1 CAB         0.0442 
     47 H10        -3.5791    7.7146    5.1539 H         1 CAB         0.0442 
     48 H11        -2.3080    4.2804   -3.8456 H         1 CAB         0.1533 
     49 H12        -0.7238    4.4821   -5.7249 H         1 CAB         0.1570 
     50 H13         1.6432    7.2544   -3.4247 H         1 CAB         0.1570 
     51 H14         0.0564    7.0486   -1.5487 H         1 CAB         0.1533 
     52 H15         1.2951    5.4264   -6.6875 H         1 CAB         0.3268 
     53 H16         5.3530    6.8847   -7.7836 H         1 CAB         0.0920 
     54 H17         5.1502    6.3955   -6.0672 H         1 CAB         0.0920 
     55 H18         3.2859    4.5064   -6.8259 H         1 CAB         0.0920 
     56 H19         3.4887    4.9956   -8.5423 H         1 CAB         0.0920 
     57 H20         3.4599    9.1619   -6.9710 H         1 CAB         0.3155 
     58 H21         3.3897   11.4158   -7.2441 H         1 CAB         0.1539 
     59 H22         2.8346   13.3898   -8.6243 H         1 CAB         0.1528 
     60 H23         1.4265   10.8159  -11.7625 H         1 CAB         0.1528 
     61 H24         1.9764    8.8330  -10.3930 H         1 CAB         0.1539 
     62 H62        -3.6807    9.9975    0.7503 H         1 CAB         0.0000 
@<TRIPOS>BOND
     1    1    2 1    
     2    1   38 1    
     3    1   39 1    
     4    1   40 1    
     5    2    3 1    
     6    3   12 ar   
     7    3    4 ar   
     8    4    5 ar   
     9    4   41 1    
    10    5   10 ar   
    11    5    6 ar   
    12    6    7 ar   
    13    6   15 1    
    14    7    8 ar   
    15    7   42 1    
    16    8    9 ar   
    17    8   43 1    
    18    9   10 ar   
    19    9   62 1    
    20   10   11 ar   
    21   11   12 ar   
    22   11   44 1    
    23   12   13 1    
    24   13   14 1    
    25   14   45 1    
    26   14   46 1    
    27   14   47 1    
    28   15   16 1    
    29   16   21 ar   
    30   16   17 ar   
    31   17   18 ar   
    32   17   48 1    
    33   18   19 ar   
    34   18   49 1    
    35   19   20 ar   
    36   19   22 1    
    37   20   21 ar   
    38   20   50 1    
    39   21   51 1    
    40   22   23 am   BACKBONE|DICT|INTERRES
    41   22   52 1    
    42   23   24 2    
    43   23   25 1    
    44   25   27 1    
    45   25   26 1    
    46   25   28 1    
    47   26   27 1    
    48   26   53 1    
    49   26   54 1    
    50   27   55 1    
    51   27   56 1    
    52   28   29 2    
    53   28   30 am   BACKBONE|DICT|INTERRES
    54   30   31 1    
    55   30   57 1    
    56   31   36 ar   
    57   31   32 ar   
    58   32   33 ar   
    59   32   58 1    
    60   33   34 ar   
    61   33   59 1    
    62   34   35 ar   
    63   34   37 1    
    64   35   36 ar   
    65   35   60 1    
    66   36   61 1    
@<TRIPOS>SUBSTRUCTURE
     1 CAB         1 GROUP             0       ****    0 ROOT    
@<TRIPOS>MOLECULE
~{N}1-[4-[(6,7-dimethoxy-4-quinolyl)oxy]phenyl]-~{N}1'-(4-fluorophenyl)cyclopropane-1,1-dicarboxamide
61   65    1
SMALL
USER_CHARGES


@<TRIPOS>ATOM
      1 C1          0.6581    5.3258    3.4394 C.3       1 CAB         0.1190 
      2 O1         -0.7597    5.2342    3.3634 O.3       1 CAB        -0.3424 
      3 C2         -1.3950    6.1738    2.6108 C.ar      1 CAB         0.0732 
      4 C3         -1.6183    5.9369    1.2575 C.ar      1 CAB        -0.0985 
      5 C4         -2.2725    6.8963    0.4661 C.ar      1 CAB        -0.1570 
      6 C5         -2.5102    6.6837   -0.8986 C.ar      1 CAB         0.1742 
      7 C6         -3.1587    7.6508   -1.6529 C.ar      1 CAB        -0.3336 
      8 C7         -3.5497    8.8068   -1.0083 C.ar      1 CAB         0.4424 
      9 N1         -3.3398    9.0510    0.3055 N.ar      1 CAB        -0.6774 
     10 C8         -2.7101    8.1107    1.0351 C.ar      1 CAB         0.4164 
     11 C9         -2.4739    8.3213    2.3908 C.ar      1 CAB        -0.1878 
     12 C10        -1.8235    7.3676    3.1778 C.ar      1 CAB         0.1013 
     13 O2         -1.6160    7.6211    4.5002 O.3       1 CAB        -0.3431 
     14 C11        -2.6361    7.2080    5.4072 C.3       1 CAB         0.1187 
     15 O3         -2.1171    5.5352   -1.5219 O.3       1 CAB        -0.2423 
     16 C12        -1.2282    5.6507   -2.5753 C.ar      1 CAB         0.0433 
     17 C13        -1.4434    4.9317   -3.7511 C.ar      1 CAB        -0.1009 
     18 C14        -0.5470    5.0476   -4.8135 C.ar      1 CAB        -0.1608 
     19 C15         0.5647    5.8825   -4.7001 C.ar      1 CAB         0.0752 
     20 C16         0.7799    6.6014   -3.5242 C.ar      1 CAB        -0.1608 
     21 C17        -0.1165    6.4855   -2.4619 C.ar      1 CAB        -0.1009 
     22 N2          1.4633    5.9956   -5.7613 N.am      1 CAB        -0.4555 
     23 C18         2.6251    6.7759   -5.8319 C.2       1 CAB         0.7159 
     24 O4          3.0814    7.5142   -4.9648 O.2       1 CAB        -0.5667 
     25 C19         3.3240    6.6195   -7.1590 C.3       1 CAB        -0.2931 
     26 C20         4.7806    6.2483   -7.0927 C.3       1 CAB        -0.0987 
     27 C21         3.7703    5.2245   -7.5039 C.3       1 CAB        -0.0987 
     28 C22         2.8751    7.4974   -8.2428 C.2       1 CAB         0.7122 
     29 O5          2.4069    7.0561   -9.3136 O.2       1 CAB        -0.5782 
     30 N3          3.0352    8.8601   -7.9398 N.am      1 CAB        -0.4687 
     31 C23         2.7197    9.9928   -8.7271 C.ar      1 CAB         0.0534 
     32 C24         2.9598   11.2748   -8.2326 C.ar      1 CAB        -0.1418 
     33 C25         2.6482   12.3913   -9.0085 C.ar      1 CAB        -0.1381 
     34 C26         2.0964   12.2258  -10.2789 C.ar      1 CAB         0.1021 
     35 C27         1.8562   10.9438  -10.7733 C.ar      1 CAB        -0.1381 
     36 C28         2.1678    9.8273   -9.9974 C.ar      1 CAB        -0.1418 
     37 F1          1.7947   13.2980  -11.0228 F         1 CAB        -0.1392 
     38 H1          1.0445    4.5140    4.0732 H         1 CAB         0.0438 
     39 H2          0.9400    6.2962    3.8740 H         1 CAB         0.0438 
     40 H3          1.0858    5.2380    2.4298 H         1 CAB         0.0438 
     41 H4         -1.2771    4.9976    0.8271 H         1 CAB         0.1627 
     42 H5         -3.3544    7.5096   -2.7099 H         1 CAB         0.1574 
     43 H6         -4.0614    9.5977   -1.5470 H         1 CAB         0.0231 
     44 H7         -2.8032    9.2509    2.8530 H         1 CAB         0.1652 
     45 H8         -2.3425    7.4717    6.4340 H         1 CAB         0.0442 
     46 H9         -2.7734    6.1191    5.3333 H         1 CAB         0.0442 
     47 H10        -3.5791    7.7146    5.1539 H         1 CAB         0.0442 
     48 H11        -2.3080    4.2804   -3.8456 H         1 CAB         0.1533 
     49 H12        -0.7238    4.4821   -5.7249 H         1 CAB         0.1570 
     50 H13         1.6432    7.2544   -3.4247 H         1 CAB         0.1570 
     51 H14         0.0564    7.0486   -1.5487 H         1 CAB         0.1533 
     52 H15         1.2951    5.4264   -6.6875 H         1 CAB         0.3268 
     53 H16         5.3530    6.8847   -7.7836 H         1 CAB         0.0920 
     54 H17         5.1502    6.3955   -6.0672 H         1 CAB         0.0920 
     55 H18         3.2859    4.5064   -6.8259 H         1 CAB         0.0920 
     56 H19         3.4887    4.9956   -8.5423 H         1 CAB         0.0920 
     57 H20         3.4599    9.1619   -6.9710 H         1 CAB         0.3155 
     58 H21         3.3897   11.4158   -7.2441 H         1 CAB         0.1539 
     59 H22         2.8346   13.3898   -8.6243 H         1 CAB         0.1528 
     60 H23         1.4265   10.8159  -11.7625 H         1 CAB         0.1528 
     61 H24         1.9764    8.8330  -10.3930 H         1 CAB         0.1539 
@<TRIPOS>BOND
     1    1    2 1    
     2    1   38 1    
     3    1   39 1    
     4    1   40 1    
     5    2    3 1    
     6    3   12 ar   
     7    3    4 ar   
     8    4    5 ar   
     9    4   41 1    
    10    5   10 ar   
    11    5    6 ar   
    12    6    7 ar   
    13    6   15 1    
    14    7    8 ar   
    15    7   42 1    
    16    8    9 ar   
    17    8   43 1    
    18    9   10 ar   
    19   10   11 ar   
    20   11   12 ar   
    21   11   44 1    
    22   12   13 1    
    23   13   14 1    
    24   14   45 1    
    25   14   46 1    
    26   14   47 1    
    27   15   16 1    
    28   16   21 ar   
    29   16   17 ar   
    30   17   18 ar   
    31   17   48 1    
    32   18   19 ar   
    33   18   49 1    
    34   19   20 ar   
    35   19   22 1    
    36   20   21 ar   
    37   20   50 1    
    38   21   51 1    
    39   22   23 am   BACKBONE|DICT|INTERRES
    40   22   52 1    
    41   23   24 2    
    42   23   25 1    
    43   25   27 1    
    44   25   26 1    
    45   25   28 1    
    46   26   27 1    
    47   26   53 1    
    48   26   54 1    
    49   27   55 1    
    50   27   56 1    
    51   28   29 2    
    52   28   30 am   BACKBONE|DICT|INTERRES
    53   30   31 1    
    54   30   57 1    
    55   31   36 ar   
    56   31   32 ar   
    57   32   33 ar   
    58   32   58 1    
    59   33   34 ar   
    60   33   59 1    
    61   34   35 ar   
    62   34   37 1    
    63   35   36 ar   
    64   35   60 1    
    65   36   61 1    
@<TRIPOS>SUBSTRUCTURE
     1 CAB         1 GROUP             0       ****    0 ROOT    
