@<TRIPOS>MOLECULE
~{N}1-[4-[(6,7-dimethoxy-4-quinolyl)oxy]phenyl]-~{N}1'-(4-fluorophenyl)cyclopropane-1,1-dicarboxamide
   61    65     1     0     0
SMALL
USER_CHARGES

@<TRIPOS>ATOM
      1 C1          0.6581    5.3258    3.4394 C.3       1 CAB         0.1196
      2 O1         -0.7597    5.2342    3.3634 O.3       1 CAB        -0.3417
      3 C2         -1.3950    6.1738    2.6108 C.ar      1 CAB         0.0740
      4 C3         -1.6183    5.9369    1.2575 C.ar      1 CAB        -0.0998
      5 C4         -2.2725    6.8963    0.4661 C.ar      1 CAB        -0.1561
      6 C5         -2.5101    6.6837   -0.8986 C.ar      1 CAB         0.1715
      7 C6         -3.1587    7.6508   -1.6529 C.ar      1 CAB        -0.3342
      8 C7         -3.5497    8.8068   -1.0083 C.ar      1 CAB         0.4424
      9 N1         -3.3398    9.0510    0.3055 N.ar      1 CAB        -0.6772
     10 C8         -2.7101    8.1107    1.0351 C.ar      1 CAB         0.4172
     11 C9         -2.4739    8.3213    2.3908 C.ar      1 CAB        -0.1873
     12 C10        -1.8235    7.3676    3.1778 C.ar      1 CAB         0.1011
     13 O2         -1.6160    7.6211    4.5002 O.3       1 CAB        -0.3417
     14 C11        -2.6361    7.2080    5.4072 C.3       1 CAB         0.1180
     15 O3         -2.1171    5.5352   -1.5219 O.3       1 CAB        -0.2404
     16 C12        -1.2282    5.6507   -2.5753 C.ar      1 CAB         0.0440
     17 C13        -1.4434    4.9317   -3.7511 C.ar      1 CAB        -0.1014
     18 C14        -0.5470    5.0476   -4.8135 C.ar      1 CAB        -0.1581
     19 C15         0.5647    5.8825   -4.7001 C.ar      1 CAB         0.0715
     20 C16         0.7799    6.6014   -3.5242 C.ar      1 CAB        -0.1581
     21 C17        -0.1165    6.4855   -2.4619 C.ar      1 CAB        -0.1014
     22 N2          1.4633    5.9956   -5.7613 N.am      1 CAB        -0.4593
     23 C18         2.6251    6.7759   -5.8319 C.2       1 CAB         0.7146
     24 O4          3.0814    7.5142   -4.9648 O.2       1 CAB        -0.5577
     25 C19         3.3240    6.6195   -7.1590 C.3       1 CAB        -0.2948
     26 C20         4.7806    6.2483   -7.0926 C.3       1 CAB        -0.0984
     27 C21         3.7703    5.2245   -7.5038 C.3       1 CAB        -0.0984
     28 C22         2.8749    7.4977   -8.2427 C.2       1 CAB         0.7117
     29 O5          2.4066    7.0565   -9.3134 O.2       1 CAB        -0.5722
     30 N3          3.0350    8.8603   -7.9393 N.am      1 CAB        -0.4701
     31 C23         2.7194    9.9931   -8.7264 C.ar      1 CAB         0.0577
     32 C24         2.9596   11.2750   -8.2317 C.ar      1 CAB        -0.1442
     33 C25         2.6479   12.3916   -9.0073 C.ar      1 CAB        -0.1375
     34 C26         2.0959   12.2264  -10.2776 C.ar      1 CAB         0.1010
     35 C27         1.8557   10.9444  -10.7723 C.ar      1 CAB        -0.1375
     36 C28         2.1674    9.8278   -9.9967 C.ar      1 CAB        -0.1442
     37 F1          1.7940   13.2987  -11.0214 F         1 CAB        -0.1382
     38 H1          1.0429    4.5197    4.0690 H         1 CAB         0.0432
     39 H2          0.9396    6.2954    3.8580 H         1 CAB         0.0432
     40 H3          1.0749    5.2304    2.4340 H         1 CAB         0.0432
     41 H4         -1.2771    4.9976    0.8271 H         1 CAB         0.1632
     42 H5         -3.3544    7.5096   -2.7099 H         1 CAB         0.1582
     43 H6         -4.0614    9.5977   -1.5470 H         1 CAB         0.0231
     44 H7         -2.8032    9.2509    2.8530 H         1 CAB         0.1648
     45 H8         -2.3379    7.4726    6.4209 H         1 CAB         0.0441
     46 H9         -2.7758    6.1313    5.3177 H         1 CAB         0.0441
     47 H10        -3.5593    7.7241    5.1465 H         1 CAB         0.0441
     48 H11        -2.3080    4.2804   -3.8456 H         1 CAB         0.1540
     49 H12        -0.7238    4.4821   -5.7249 H         1 CAB         0.1553
     50 H13         1.6432    7.2544   -3.4247 H         1 CAB         0.1553
     51 H14         0.0564    7.0486   -1.5487 H         1 CAB         0.1540
     52 H15         1.2529    5.4393   -6.5980 H         1 CAB         0.3219
     53 H16         5.4375    6.6430   -7.8591 H         1 CAB         0.0918
     54 H17         5.2579    6.1246   -6.1274 H         1 CAB         0.0918
     55 H18         3.7478    4.9307   -8.5469 H         1 CAB         0.0918
     56 H19         3.5683    4.4123   -6.8152 H         1 CAB         0.0918
     57 H20         3.4343    9.0607   -7.0247 H         1 CAB         0.3139
     58 H21         3.3896   11.4158   -7.2433 H         1 CAB         0.1541
     59 H22         2.8343   13.3901   -8.6229 H         1 CAB         0.1521
     60 H23         1.4258   10.8168  -11.7614 H         1 CAB         0.1521
     61 H24         1.9759    8.8336  -10.3924 H         1 CAB         0.1541
@<TRIPOS>BOND
     1    1    2 1
     2    2    3 1
     3    3   12 ar
     4    3    4 ar
     5    4    5 ar
     6    5   10 ar
     7    5    6 ar
     8    6    7 ar
     9    7    8 ar
    10    8    9 ar
    11    9   10 ar
    12   10   11 ar
    13   11   12 ar
    14   12   13 1
    15   13   14 1
    16    6   15 1
    17   15   16 1
    18   16   21 ar
    19   16   17 ar
    20   17   18 ar
    21   18   19 ar
    22   19   20 ar
    23   20   21 ar
    24   19   22 1
    25   22   23 am
    26   23   24 2
    27   23   25 1
    28   25   27 1
    29   25   26 1
    30   26   27 1
    31   25   28 1
    32   28   29 2
    33   28   30 am
    34   30   31 1
    35   31   36 ar
    36   31   32 ar
    37   32   33 ar
    38   33   34 ar
    39   34   35 ar
    40   35   36 ar
    41   34   37 1
    42    1   38 1
    43    1   39 1
    44    1   40 1
    45    4   41 1
    46    7   42 1
    47    8   43 1
    48   11   44 1
    49   14   45 1
    50   14   46 1
    51   14   47 1
    52   17   48 1
    53   18   49 1
    54   20   50 1
    55   21   51 1
    56   22   52 1
    57   26   53 1
    58   26   54 1
    59   27   55 1
    60   27   56 1
    61   30   57 1
    62   32   58 1
    63   33   59 1
    64   35   60 1
    65   36   61 1
@<TRIPOS>SUBSTRUCTURE
     1 CAB         1 GROUP 0 A     ****
