@<TRIPOS>MOLECULE
~{N}1-[4-[(6,7-dimethoxy-1,2-dihydroquinolin-2-ylium-4-yl)oxy]phenyl]-~{N}1'-(4-fluorophenyl)cyclopropane-1,1-dicarboxamide
   62    66     1     0     0
SMALL
USER_CHARGES

@<TRIPOS>ATOM
      1 C1          0.6581    5.3258    3.4394 C.3       1 CAB         0.1147
      2 O1         -0.7597    5.2342    3.3634 O.3       1 CAB        -0.3306
      3 C2         -1.3950    6.1738    2.6108 C.ar      1 CAB         0.0938
      4 C3         -1.6183    5.9369    1.2575 C.ar      1 CAB        -0.0691
      5 C4         -2.2725    6.8963    0.4661 C.ar      1 CAB        -0.1235
      6 C5         -2.5101    6.6837   -0.8986 C.ar      1 CAB         0.3128
      7 C6         -3.1587    7.6508   -1.6529 C.ar      1 CAB        -0.2883
      8 C7         -3.5497    8.8068   -1.0083 C.cat     1 CAB         0.1734
      9 N1         -3.3398    9.0510    0.3055 N.pl3     1 CAB        -0.5157
     10 C8         -2.7101    8.1107    1.0351 C.ar      1 CAB         0.1562
     11 C9         -2.4739    8.3213    2.3908 C.ar      1 CAB        -0.1896
     12 C10        -1.8235    7.3676    3.1778 C.ar      1 CAB         0.1902
     13 O2         -1.6160    7.6211    4.5002 O.3       1 CAB        -0.3360
     14 C11        -2.6361    7.2080    5.4072 C.3       1 CAB         0.1179
     15 O3         -2.1171    5.5352   -1.5219 O.3       1 CAB        -0.1865
     16 C12        -1.2282    5.6507   -2.5753 C.ar      1 CAB        -0.0306
     17 C13        -1.4434    4.9317   -3.7511 C.ar      1 CAB        -0.0800
     18 C14        -0.5470    5.0476   -4.8135 C.ar      1 CAB        -0.1675
     19 C15         0.5647    5.8825   -4.7001 C.ar      1 CAB         0.1217
     20 C16         0.7799    6.6014   -3.5242 C.ar      1 CAB        -0.1675
     21 C17        -0.1165    6.4855   -2.4619 C.ar      1 CAB        -0.0800
     22 N2          1.4633    5.9956   -5.7613 N.am      1 CAB        -0.4639
     23 C18         2.6251    6.7759   -5.8319 C.2       1 CAB         0.7223
     24 O4          3.0814    7.5142   -4.9648 O.2       1 CAB        -0.5430
     25 C19         3.3240    6.6195   -7.1590 C.3       1 CAB        -0.2961
     26 C20         4.7806    6.2483   -7.0926 C.3       1 CAB        -0.0953
     27 C21         3.7703    5.2245   -7.5038 C.3       1 CAB        -0.0953
     28 C22         2.8749    7.4977   -8.2427 C.2       1 CAB         0.7091
     29 O5          2.4066    7.0565   -9.3134 O.2       1 CAB        -0.5889
     30 N3          3.0350    8.8603   -7.9393 N.am      1 CAB        -0.4592
     31 C23         2.7194    9.9931   -8.7264 C.ar      1 CAB         0.0403
     32 C24         2.9596   11.2750   -8.2317 C.ar      1 CAB        -0.1356
     33 C25         2.6479   12.3916   -9.0073 C.ar      1 CAB        -0.1394
     34 C26         2.0959   12.2264  -10.2776 C.ar      1 CAB         0.1142
     35 C27         1.8557   10.9444  -10.7723 C.ar      1 CAB        -0.1394
     36 C28         2.1674    9.8278   -9.9967 C.ar      1 CAB        -0.1356
     37 F1          1.7940   13.2987  -11.0214 F         1 CAB        -0.1325
     38 H1          1.0445    4.5140    4.0732 H         1 CAB         0.0590
     39 H2          0.9400    6.2962    3.8740 H         1 CAB         0.0590
     40 H3          1.0858    5.2380    2.4298 H         1 CAB         0.0590
     41 H4         -1.2771    4.9976    0.8271 H         1 CAB         0.1904
     42 H5         -3.3544    7.5096   -2.7099 H         1 CAB         0.2035
     43 H6         -4.0614    9.5977   -1.5470 H         1 CAB         0.2005
     44 H7         -2.8032    9.2509    2.8530 H         1 CAB         0.1747
     45 H8         -2.3425    7.4717    6.4340 H         1 CAB         0.0618
     46 H9         -2.7734    6.1191    5.3333 H         1 CAB         0.0618
     47 H10        -3.5791    7.7146    5.1539 H         1 CAB         0.0618
     48 H11        -2.3080    4.2804   -3.8456 H         1 CAB         0.1559
     49 H12        -0.7238    4.4821   -5.7249 H         1 CAB         0.1712
     50 H13         1.6432    7.2544   -3.4247 H         1 CAB         0.1712
     51 H14         0.0564    7.0486   -1.5487 H         1 CAB         0.1559
     52 H15         1.2951    5.4264   -6.6875 H         1 CAB         0.3347
     53 H16         5.3530    6.8847   -7.7835 H         1 CAB         0.0941
     54 H17         5.1502    6.3955   -6.0671 H         1 CAB         0.0941
     55 H18         3.2859    4.5065   -6.8258 H         1 CAB         0.0941
     56 H19         3.4888    4.9956   -8.5422 H         1 CAB         0.0941
     57 H20         3.4597    9.1618   -6.9704 H         1 CAB         0.3181
     58 H21         3.3896   11.4158   -7.2433 H         1 CAB         0.1531
     59 H22         2.8343   13.3901   -8.6229 H         1 CAB         0.1569
     60 H23         1.4258   10.8168  -11.7614 H         1 CAB         0.1569
     61 H24         1.9759    8.8336  -10.3924 H         1 CAB         0.1531
     62 H62        -3.6807    9.9975    0.7503 H         1 CAB         0.4873
@<TRIPOS>BOND
     1    1    2 1
     2    1   38 1
     3    1   39 1
     4    1   40 1
     5    2    3 1
     6    3   12 ar
     7    3    4 ar
     8    4    5 ar
     9    4   41 1
    10    5   10 ar
    11    5    6 ar
    12    6    7 ar
    13    6   15 1
    14    7    8 ar
    15    7   42 1
    16    8    9 ar
    17    8   43 1
    18    9   10 ar
    19    9   62 1
    20   10   11 ar
    21   11   12 ar
    22   11   44 1
    23   12   13 1
    24   13   14 1
    25   14   45 1
    26   14   46 1
    27   14   47 1
    28   15   16 1
    29   16   21 ar
    30   16   17 ar
    31   17   18 ar
    32   17   48 1
    33   18   19 ar
    34   18   49 1
    35   19   20 ar
    36   19   22 1
    37   20   21 ar
    38   20   50 1
    39   21   51 1
    40   22   23 am
    41   22   52 1
    42   23   24 2
    43   23   25 1
    44   25   27 1
    45   25   26 1
    46   25   28 1
    47   26   27 1
    48   26   53 1
    49   26   54 1
    50   27   55 1
    51   27   56 1
    52   28   29 2
    53   28   30 am
    54   30   31 1
    55   30   57 1
    56   31   36 ar
    57   31   32 ar
    58   32   33 ar
    59   32   58 1
    60   33   34 ar
    61   33   59 1
    62   34   35 ar
    63   34   37 1
    64   35   36 ar
    65   35   60 1
    66   36   61 1
@<TRIPOS>SUBSTRUCTURE
     1 CAB         1 GROUP   0 A     ****
@<TRIPOS>MOLECULE
~{N}1-[4-[(6,7-dimethoxy-4-quinolyl)oxy]phenyl]-~{N}1'-(4-fluorophenyl)cyclopropane-1,1-dicarboxamide
   61    65     1     0     0
SMALL
USER_CHARGES

@<TRIPOS>ATOM
      1 C1          0.6581    5.3258    3.4394 C.3       1 CAB         0.1192
      2 O1         -0.7597    5.2342    3.3634 O.3       1 CAB        -0.3414
      3 C2         -1.3950    6.1738    2.6108 C.ar      1 CAB         0.0737
      4 C3         -1.6183    5.9369    1.2575 C.ar      1 CAB        -0.0995
      5 C4         -2.2725    6.8963    0.4661 C.ar      1 CAB        -0.1570
      6 C5         -2.5101    6.6837   -0.8986 C.ar      1 CAB         0.1725
      7 C6         -3.1587    7.6508   -1.6529 C.ar      1 CAB        -0.3341
      8 C7         -3.5497    8.8068   -1.0083 C.ar      1 CAB         0.4431
      9 N1         -3.3398    9.0510    0.3055 N.ar      1 CAB        -0.6798
     10 C8         -2.7101    8.1107    1.0351 C.ar      1 CAB         0.4184
     11 C9         -2.4739    8.3213    2.3908 C.ar      1 CAB        -0.1873
     12 C10        -1.8235    7.3676    3.1778 C.ar      1 CAB         0.1009
     13 O2         -1.6160    7.6211    4.5002 O.3       1 CAB        -0.3421
     14 C11        -2.6361    7.2080    5.4072 C.3       1 CAB         0.1181
     15 O3         -2.1171    5.5352   -1.5219 O.3       1 CAB        -0.2407
     16 C12        -1.2282    5.6507   -2.5753 C.ar      1 CAB         0.0437
     17 C13        -1.4434    4.9317   -3.7511 C.ar      1 CAB        -0.1012
     18 C14        -0.5470    5.0476   -4.8135 C.ar      1 CAB        -0.1594
     19 C15         0.5647    5.8825   -4.7001 C.ar      1 CAB         0.0714
     20 C16         0.7799    6.6014   -3.5242 C.ar      1 CAB        -0.1594
     21 C17        -0.1165    6.4855   -2.4619 C.ar      1 CAB        -0.1012
     22 N2          1.4633    5.9956   -5.7613 N.am      1 CAB        -0.4573
     23 C18         2.6251    6.7759   -5.8319 C.2       1 CAB         0.7150
     24 O4          3.0814    7.5142   -4.9648 O.2       1 CAB        -0.5601
     25 C19         3.3240    6.6195   -7.1590 C.3       1 CAB        -0.2950
     26 C20         4.7806    6.2483   -7.0926 C.3       1 CAB        -0.0989
     27 C21         3.7703    5.2245   -7.5038 C.3       1 CAB        -0.0989
     28 C22         2.8749    7.4977   -8.2427 C.2       1 CAB         0.7126
     29 O5          2.4066    7.0565   -9.3134 O.2       1 CAB        -0.5731
     30 N3          3.0350    8.8603   -7.9393 N.am      1 CAB        -0.4697
     31 C23         2.7194    9.9931   -8.7264 C.ar      1 CAB         0.0573
     32 C24         2.9596   11.2750   -8.2317 C.ar      1 CAB        -0.1439
     33 C25         2.6479   12.3916   -9.0073 C.ar      1 CAB        -0.1377
     34 C26         2.0959   12.2264  -10.2776 C.ar      1 CAB         0.1017
     35 C27         1.8557   10.9444  -10.7723 C.ar      1 CAB        -0.1377
     36 C28         2.1674    9.8278   -9.9967 C.ar      1 CAB        -0.1439
     37 F1          1.7940   13.2987  -11.0214 F         1 CAB        -0.1383
     38 H1          1.0445    4.5140    4.0732 H         1 CAB         0.0434
     39 H2          0.9400    6.2962    3.8740 H         1 CAB         0.0434
     40 H3          1.0858    5.2380    2.4298 H         1 CAB         0.0434
     41 H4         -1.2771    4.9976    0.8271 H         1 CAB         0.1631
     42 H5         -3.3544    7.5096   -2.7099 H         1 CAB         0.1582
     43 H6         -4.0614    9.5977   -1.5470 H         1 CAB         0.0235
     44 H7         -2.8032    9.2509    2.8530 H         1 CAB         0.1649
     45 H8         -2.3425    7.4717    6.4340 H         1 CAB         0.0441
     46 H9         -2.7734    6.1191    5.3333 H         1 CAB         0.0441
     47 H10        -3.5791    7.7146    5.1539 H         1 CAB         0.0441
     48 H11        -2.3080    4.2804   -3.8456 H         1 CAB         0.1539
     49 H12        -0.7238    4.4821   -5.7249 H         1 CAB         0.1560
     50 H13         1.6432    7.2544   -3.4247 H         1 CAB         0.1560
     51 H14         0.0564    7.0486   -1.5487 H         1 CAB         0.1539
     52 H15         1.2951    5.4264   -6.6875 H         1 CAB         0.3240
     53 H16         5.3530    6.8847   -7.7835 H         1 CAB         0.0920
     54 H17         5.1502    6.3955   -6.0671 H         1 CAB         0.0920
     55 H18         3.2859    4.5065   -6.8258 H         1 CAB         0.0920
     56 H19         3.4888    4.9956   -8.5422 H         1 CAB         0.0920
     57 H20         3.4597    9.1618   -6.9704 H         1 CAB         0.3141
     58 H21         3.3896   11.4158   -7.2433 H         1 CAB         0.1532
     59 H22         2.8343   13.3901   -8.6229 H         1 CAB         0.1526
     60 H23         1.4258   10.8168  -11.7614 H         1 CAB         0.1526
     61 H24         1.9759    8.8336  -10.3924 H         1 CAB         0.1532
@<TRIPOS>BOND
     1    1    2 1
     2    1   38 1
     3    1   39 1
     4    1   40 1
     5    2    3 1
     6    3   12 ar
     7    3    4 ar
     8    4    5 ar
     9    4   41 1
    10    5   10 ar
    11    5    6 ar
    12    6    7 ar
    13    6   15 1
    14    7    8 ar
    15    7   42 1
    16    8    9 ar
    17    8   43 1
    18    9   10 ar
    19   10   11 ar
    20   11   12 ar
    21   11   44 1
    22   12   13 1
    23   13   14 1
    24   14   45 1
    25   14   46 1
    26   14   47 1
    27   15   16 1
    28   16   21 ar
    29   16   17 ar
    30   17   18 ar
    31   17   48 1
    32   18   19 ar
    33   18   49 1
    34   19   20 ar
    35   19   22 1
    36   20   21 ar
    37   20   50 1
    38   21   51 1
    39   22   23 am
    40   22   52 1
    41   23   24 2
    42   23   25 1
    43   25   27 1
    44   25   26 1
    45   25   28 1
    46   26   27 1
    47   26   53 1
    48   26   54 1
    49   27   55 1
    50   27   56 1
    51   28   29 2
    52   28   30 am
    53   30   31 1
    54   30   57 1
    55   31   36 ar
    56   31   32 ar
    57   32   33 ar
    58   32   58 1
    59   33   34 ar
    60   33   59 1
    61   34   35 ar
    62   34   37 1
    63   35   36 ar
    64   35   60 1
    65   36   61 1
@<TRIPOS>SUBSTRUCTURE
     1 CAB         1 GROUP   0 A     ****
