@<TRIPOS>MOLECULE
~{N}1-[4-[(6,7-dimethoxy-1,2-dihydroquinolin-2-ylium-4-yl)oxy]phenyl]-~{N}1'-(4-fluorophenyl)cyclopropane-1,1-dicarboxamide
   62    66     1     0     0
SMALL
USER_CHARGES

@<TRIPOS>ATOM
      1 C1          0.6581    5.3258    3.4394 C.3       1 CAB         0.1148
      2 O1         -0.7597    5.2342    3.3634 O.3       1 CAB        -0.3306
      3 C2         -1.3950    6.1738    2.6108 C.ar      1 CAB         0.0938
      4 C3         -1.6183    5.9369    1.2575 C.ar      1 CAB        -0.0691
      5 C4         -2.2725    6.8963    0.4661 C.ar      1 CAB        -0.1235
      6 C5         -2.5102    6.6837   -0.8986 C.ar      1 CAB         0.3128
      7 C6         -3.1587    7.6508   -1.6529 C.ar      1 CAB        -0.2884
      8 C7         -3.5497    8.8068   -1.0084 C.cat     1 CAB         0.1732
      9 N1         -3.3398    9.0510    0.3055 N.pl3     1 CAB        -0.5156
     10 C8         -2.7101    8.1107    1.0351 C.ar      1 CAB         0.1565
     11 C9         -2.4739    8.3213    2.3908 C.ar      1 CAB        -0.1897
     12 C10        -1.8235    7.3676    3.1778 C.ar      1 CAB         0.1902
     13 O2         -1.6160    7.6211    4.5002 O.3       1 CAB        -0.3360
     14 C11        -2.6362    7.2081    5.4071 C.3       1 CAB         0.1179
     15 O3         -2.1171    5.5352   -1.5219 O.3       1 CAB        -0.1865
     16 C12        -1.2282    5.6507   -2.5753 C.ar      1 CAB        -0.0304
     17 C13        -1.4434    4.9317   -3.7511 C.ar      1 CAB        -0.0801
     18 C14        -0.5469    5.0476   -4.8135 C.ar      1 CAB        -0.1677
     19 C15         0.5647    5.8825   -4.7001 C.ar      1 CAB         0.1218
     20 C16         0.7799    6.6014   -3.5242 C.ar      1 CAB        -0.1677
     21 C17        -0.1165    6.4855   -2.4619 C.ar      1 CAB        -0.0801
     22 N2          1.4633    5.9956   -5.7613 N.am      1 CAB        -0.4648
     23 C18         2.6251    6.7759   -5.8319 C.2       1 CAB         0.7228
     24 O4          3.0814    7.5142   -4.9648 O.2       1 CAB        -0.5418
     25 C19         3.3240    6.6194   -7.1590 C.3       1 CAB        -0.2964
     26 C20         4.7807    6.2483   -7.0928 C.3       1 CAB        -0.0952
     27 C21         3.7704    5.2245   -7.5040 C.3       1 CAB        -0.0952
     28 C22         2.8750    7.4975   -8.2429 C.2       1 CAB         0.7090
     29 O5          2.4068    7.0560   -9.3136 O.2       1 CAB        -0.5888
     30 N3          3.0350    8.8601   -7.9398 N.am      1 CAB        -0.4587
     31 C23         2.7194    9.9927   -8.7271 C.ar      1 CAB         0.0404
     32 C24         2.9595   11.2748   -8.2326 C.ar      1 CAB        -0.1357
     33 C25         2.6478   12.3912   -9.0085 C.ar      1 CAB        -0.1394
     34 C26         2.0960   12.2257  -10.2789 C.ar      1 CAB         0.1143
     35 C27         1.8559   10.9437  -10.7733 C.ar      1 CAB        -0.1394
     36 C28         2.1676    9.8272   -9.9974 C.ar      1 CAB        -0.1357
     37 F1          1.7941   13.2978  -11.0228 F         1 CAB        -0.1325
     38 H1          1.0445    4.5140    4.0732 H         1 CAB         0.0590
     39 H2          0.9400    6.2962    3.8740 H         1 CAB         0.0590
     40 H3          1.0858    5.2380    2.4298 H         1 CAB         0.0590
     41 H4         -1.2771    4.9976    0.8271 H         1 CAB         0.1905
     42 H5         -3.3544    7.5096   -2.7099 H         1 CAB         0.2036
     43 H6         -4.0614    9.5977   -1.5470 H         1 CAB         0.2006
     44 H7         -2.8032    9.2509    2.8530 H         1 CAB         0.1747
     45 H8         -2.3427    7.4718    6.4339 H         1 CAB         0.0618
     46 H9         -2.7737    6.1192    5.3332 H         1 CAB         0.0618
     47 H10        -3.5791    7.7148    5.1537 H         1 CAB         0.0618
     48 H11        -2.3080    4.2804   -3.8456 H         1 CAB         0.1559
     49 H12        -0.7238    4.4821   -5.7249 H         1 CAB         0.1710
     50 H13         1.6432    7.2544   -3.4247 H         1 CAB         0.1710
     51 H14         0.0564    7.0486   -1.5487 H         1 CAB         0.1559
     52 H15         1.2951    5.4264   -6.6875 H         1 CAB         0.3346
     53 H16         5.3530    6.8848   -7.7837 H         1 CAB         0.0941
     54 H17         5.1504    6.3955   -6.0673 H         1 CAB         0.0941
     55 H18         3.2861    4.5063   -6.8260 H         1 CAB         0.0941
     56 H19         3.4888    4.9957   -8.5424 H         1 CAB         0.0941
     57 H20         3.4597    9.1619   -6.9710 H         1 CAB         0.3177
     58 H21         3.3894   11.4158   -7.2442 H         1 CAB         0.1532
     59 H22         2.8341   13.3898   -8.6243 H         1 CAB         0.1569
     60 H23         1.4261   10.8158  -11.7625 H         1 CAB         0.1569
     61 H24         1.9762    8.8329  -10.3930 H         1 CAB         0.1532
     62 H62        -3.6807    9.9975    0.7503 H         1 CAB         0.4872
@<TRIPOS>BOND
     1    1    2 1
     2    1   38 1
     3    1   39 1
     4    1   40 1
     5    2    3 1
     6    3   12 ar
     7    3    4 ar
     8    4    5 ar
     9    4   41 1
    10    5   10 ar
    11    5    6 ar
    12    6    7 ar
    13    6   15 1
    14    7    8 ar
    15    7   42 1
    16    8    9 ar
    17    8   43 1
    18    9   10 ar
    19    9   62 1
    20   10   11 ar
    21   11   12 ar
    22   11   44 1
    23   12   13 1
    24   13   14 1
    25   14   45 1
    26   14   46 1
    27   14   47 1
    28   15   16 1
    29   16   21 ar
    30   16   17 ar
    31   17   18 ar
    32   17   48 1
    33   18   19 ar
    34   18   49 1
    35   19   20 ar
    36   19   22 1
    37   20   21 ar
    38   20   50 1
    39   21   51 1
    40   22   23 am
    41   22   52 1
    42   23   24 2
    43   23   25 1
    44   25   27 1
    45   25   26 1
    46   25   28 1
    47   26   27 1
    48   26   53 1
    49   26   54 1
    50   27   55 1
    51   27   56 1
    52   28   29 2
    53   28   30 am
    54   30   31 1
    55   30   57 1
    56   31   36 ar
    57   31   32 ar
    58   32   33 ar
    59   32   58 1
    60   33   34 ar
    61   33   59 1
    62   34   35 ar
    63   34   37 1
    64   35   36 ar
    65   35   60 1
    66   36   61 1
@<TRIPOS>SUBSTRUCTURE
     1 CAB         1 GROUP   0 A     ****
@<TRIPOS>MOLECULE
~{N}1-[4-[(6,7-dimethoxy-4-quinolyl)oxy]phenyl]-~{N}1'-(4-fluorophenyl)cyclopropane-1,1-dicarboxamide
   61    65     1     0     0
SMALL
USER_CHARGES

@<TRIPOS>ATOM
      1 C1          0.6581    5.3258    3.4394 C.3       1 CAB         0.1197
      2 O1         -0.7597    5.2342    3.3634 O.3       1 CAB        -0.3415
      3 C2         -1.3950    6.1738    2.6108 C.ar      1 CAB         0.0740
      4 C3         -1.6183    5.9369    1.2575 C.ar      1 CAB        -0.1000
      5 C4         -2.2725    6.8963    0.4661 C.ar      1 CAB        -0.1564
      6 C5         -2.5102    6.6837   -0.8986 C.ar      1 CAB         0.1722
      7 C6         -3.1587    7.6508   -1.6529 C.ar      1 CAB        -0.3344
      8 C7         -3.5497    8.8068   -1.0084 C.ar      1 CAB         0.4426
      9 N1         -3.3398    9.0510    0.3055 N.ar      1 CAB        -0.6787
     10 C8         -2.7101    8.1107    1.0351 C.ar      1 CAB         0.4180
     11 C9         -2.4739    8.3213    2.3908 C.ar      1 CAB        -0.1870
     12 C10        -1.8235    7.3676    3.1778 C.ar      1 CAB         0.1007
     13 O2         -1.6160    7.6211    4.5002 O.3       1 CAB        -0.3422
     14 C11        -2.6362    7.2081    5.4071 C.3       1 CAB         0.1177
     15 O3         -2.1171    5.5352   -1.5219 O.3       1 CAB        -0.2408
     16 C12        -1.2282    5.6507   -2.5753 C.ar      1 CAB         0.0443
     17 C13        -1.4434    4.9317   -3.7511 C.ar      1 CAB        -0.1011
     18 C14        -0.5469    5.0476   -4.8135 C.ar      1 CAB        -0.1585
     19 C15         0.5647    5.8825   -4.7001 C.ar      1 CAB         0.0711
     20 C16         0.7799    6.6014   -3.5242 C.ar      1 CAB        -0.1585
     21 C17        -0.1165    6.4855   -2.4619 C.ar      1 CAB        -0.1011
     22 N2          1.4633    5.9956   -5.7613 N.am      1 CAB        -0.4580
     23 C18         2.6251    6.7759   -5.8319 C.2       1 CAB         0.7151
     24 O4          3.0814    7.5142   -4.9648 O.2       1 CAB        -0.5592
     25 C19         3.3240    6.6194   -7.1590 C.3       1 CAB        -0.2948
     26 C20         4.7807    6.2483   -7.0928 C.3       1 CAB        -0.0991
     27 C21         3.7704    5.2245   -7.5040 C.3       1 CAB        -0.0991
     28 C22         2.8750    7.4975   -8.2429 C.2       1 CAB         0.7119
     29 O5          2.4068    7.0560   -9.3136 O.2       1 CAB        -0.5726
     30 N3          3.0350    8.8601   -7.9398 N.am      1 CAB        -0.4694
     31 C23         2.7194    9.9927   -8.7271 C.ar      1 CAB         0.0574
     32 C24         2.9595   11.2748   -8.2326 C.ar      1 CAB        -0.1442
     33 C25         2.6478   12.3912   -9.0085 C.ar      1 CAB        -0.1375
     34 C26         2.0960   12.2257  -10.2789 C.ar      1 CAB         0.1011
     35 C27         1.8559   10.9437  -10.7733 C.ar      1 CAB        -0.1375
     36 C28         2.1676    9.8272   -9.9974 C.ar      1 CAB        -0.1442
     37 F1          1.7941   13.2978  -11.0228 F         1 CAB        -0.1377
     38 H1          1.0445    4.5140    4.0732 H         1 CAB         0.0433
     39 H2          0.9400    6.2962    3.8740 H         1 CAB         0.0433
     40 H3          1.0858    5.2380    2.4298 H         1 CAB         0.0433
     41 H4         -1.2771    4.9976    0.8271 H         1 CAB         0.1630
     42 H5         -3.3544    7.5096   -2.7099 H         1 CAB         0.1582
     43 H6         -4.0614    9.5977   -1.5470 H         1 CAB         0.0233
     44 H7         -2.8032    9.2509    2.8530 H         1 CAB         0.1647
     45 H8         -2.3427    7.4718    6.4339 H         1 CAB         0.0443
     46 H9         -2.7737    6.1192    5.3332 H         1 CAB         0.0443
     47 H10        -3.5791    7.7148    5.1537 H         1 CAB         0.0443
     48 H11        -2.3080    4.2804   -3.8456 H         1 CAB         0.1541
     49 H12        -0.7238    4.4821   -5.7249 H         1 CAB         0.1554
     50 H13         1.6432    7.2544   -3.4247 H         1 CAB         0.1554
     51 H14         0.0564    7.0486   -1.5487 H         1 CAB         0.1541
     52 H15         1.2951    5.4264   -6.6875 H         1 CAB         0.3231
     53 H16         5.3530    6.8848   -7.7837 H         1 CAB         0.0919
     54 H17         5.1504    6.3955   -6.0673 H         1 CAB         0.0919
     55 H18         3.2861    4.5063   -6.8260 H         1 CAB         0.0919
     56 H19         3.4888    4.9957   -8.5424 H         1 CAB         0.0919
     57 H20         3.4597    9.1619   -6.9710 H         1 CAB         0.3145
     58 H21         3.3894   11.4158   -7.2442 H         1 CAB         0.1537
     59 H22         2.8341   13.3898   -8.6243 H         1 CAB         0.1521
     60 H23         1.4261   10.8158  -11.7625 H         1 CAB         0.1521
     61 H24         1.9762    8.8329  -10.3930 H         1 CAB         0.1537
@<TRIPOS>BOND
     1    1    2 1
     2    1   38 1
     3    1   39 1
     4    1   40 1
     5    2    3 1
     6    3   12 ar
     7    3    4 ar
     8    4    5 ar
     9    4   41 1
    10    5   10 ar
    11    5    6 ar
    12    6    7 ar
    13    6   15 1
    14    7    8 ar
    15    7   42 1
    16    8    9 ar
    17    8   43 1
    18    9   10 ar
    19   10   11 ar
    20   11   12 ar
    21   11   44 1
    22   12   13 1
    23   13   14 1
    24   14   45 1
    25   14   46 1
    26   14   47 1
    27   15   16 1
    28   16   21 ar
    29   16   17 ar
    30   17   18 ar
    31   17   48 1
    32   18   19 ar
    33   18   49 1
    34   19   20 ar
    35   19   22 1
    36   20   21 ar
    37   20   50 1
    38   21   51 1
    39   22   23 am
    40   22   52 1
    41   23   24 2
    42   23   25 1
    43   25   27 1
    44   25   26 1
    45   25   28 1
    46   26   27 1
    47   26   53 1
    48   26   54 1
    49   27   55 1
    50   27   56 1
    51   28   29 2
    52   28   30 am
    53   30   31 1
    54   30   57 1
    55   31   36 ar
    56   31   32 ar
    57   32   33 ar
    58   32   58 1
    59   33   34 ar
    60   33   59 1
    61   34   35 ar
    62   34   37 1
    63   35   36 ar
    64   35   60 1
    65   36   61 1
@<TRIPOS>SUBSTRUCTURE
     1 CAB         1 GROUP   0 A     ****
