~{N}1-[4-[(6,7-dimethoxy-4-quinolyl)oxy]phenyl]-~{N}1'-(4-fluorophenyl)cyclopropane-1,1-dicarboxamide
                    3D
 Structure written by MMmdl.
 62 66  0  0  1  0            999 V2000
    0.6581    5.3258    3.4394 C   0  0  0  0  0  0
   -0.7597    5.2342    3.3634 O   0  0  0  0  0  0
   -1.3950    6.1738    2.6108 C   0  0  0  0  0  0
   -1.6183    5.9369    1.2575 C   0  0  0  0  0  0
   -2.2725    6.8963    0.4661 C   0  0  0  0  0  0
   -2.5102    6.6837   -0.8986 C   0  0  0  0  0  0
   -3.1587    7.6508   -1.6529 C   0  0  0  0  0  0
   -3.5497    8.8068   -1.0084 C   0  0  0  0  0  0
   -3.3398    9.0510    0.3055 N   0  3  0  0  0  0
   -2.7101    8.1107    1.0351 C   0  0  0  0  0  0
   -2.4739    8.3213    2.3908 C   0  0  0  0  0  0
   -1.8235    7.3676    3.1778 C   0  0  0  0  0  0
   -1.6160    7.6211    4.5002 O   0  0  0  0  0  0
   -2.6362    7.2081    5.4071 C   0  0  0  0  0  0
   -2.1171    5.5352   -1.5219 O   0  0  0  0  0  0
   -1.2282    5.6507   -2.5753 C   0  0  0  0  0  0
   -1.4434    4.9317   -3.7511 C   0  0  0  0  0  0
   -0.5469    5.0476   -4.8135 C   0  0  0  0  0  0
    0.5647    5.8825   -4.7001 C   0  0  0  0  0  0
    0.7799    6.6014   -3.5242 C   0  0  0  0  0  0
   -0.1165    6.4855   -2.4619 C   0  0  0  0  0  0
    1.4633    5.9956   -5.7613 N   0  0  0  0  0  0
    2.6251    6.7759   -5.8319 C   0  0  0  0  0  0
    3.0814    7.5142   -4.9648 O   0  0  0  0  0  0
    3.3240    6.6194   -7.1590 C   0  0  0  0  0  0
    4.7807    6.2483   -7.0928 C   0  0  0  0  0  0
    3.7704    5.2245   -7.5040 C   0  0  0  0  0  0
    2.8750    7.4975   -8.2429 C   0  0  0  0  0  0
    2.4068    7.0560   -9.3136 O   0  0  0  0  0  0
    3.0350    8.8601   -7.9398 N   0  0  0  0  0  0
    2.7194    9.9927   -8.7271 C   0  0  0  0  0  0
    2.9595   11.2748   -8.2326 C   0  0  0  0  0  0
    2.6478   12.3912   -9.0085 C   0  0  0  0  0  0
    2.0960   12.2257  -10.2789 C   0  0  0  0  0  0
    1.8559   10.9437  -10.7733 C   0  0  0  0  0  0
    2.1676    9.8272   -9.9974 C   0  0  0  0  0  0
    1.7941   13.2978  -11.0228 F   0  0  0  0  0  0
    1.0445    4.5140    4.0732 H   0  0  0  0  0  0
    0.9400    6.2962    3.8740 H   0  0  0  0  0  0
    1.0858    5.2380    2.4298 H   0  0  0  0  0  0
   -1.2771    4.9976    0.8271 H   0  0  0  0  0  0
   -3.3544    7.5096   -2.7099 H   0  0  0  0  0  0
   -4.0614    9.5977   -1.5470 H   0  0  0  0  0  0
   -2.8032    9.2509    2.8530 H   0  0  0  0  0  0
   -2.3427    7.4718    6.4339 H   0  0  0  0  0  0
   -2.7737    6.1192    5.3332 H   0  0  0  0  0  0
   -3.5791    7.7148    5.1537 H   0  0  0  0  0  0
   -2.3080    4.2804   -3.8456 H   0  0  0  0  0  0
   -0.7238    4.4821   -5.7249 H   0  0  0  0  0  0
    1.6432    7.2544   -3.4247 H   0  0  0  0  0  0
    0.0564    7.0486   -1.5487 H   0  0  0  0  0  0
    1.2951    5.4264   -6.6875 H   0  0  0  0  0  0
    5.3530    6.8848   -7.7837 H   0  0  0  0  0  0
    5.1504    6.3955   -6.0673 H   0  0  0  0  0  0
    3.2861    4.5063   -6.8260 H   0  0  0  0  0  0
    3.4888    4.9957   -8.5424 H   0  0  0  0  0  0
    3.4597    9.1619   -6.9710 H   0  0  0  0  0  0
    3.3894   11.4158   -7.2442 H   0  0  0  0  0  0
    2.8341   13.3898   -8.6243 H   0  0  0  0  0  0
    1.4261   10.8158  -11.7625 H   0  0  0  0  0  0
    1.9762    8.8329  -10.3930 H   0  0  0  0  0  0
   -3.6807    9.9975    0.7503 H   0  0  0  0  0  0
  1  2  1  0  0  0
  1 38  1  0  0  0
  1 39  1  0  0  0
  1 40  1  0  0  0
  2  3  1  0  0  0
  3 12  2  0  0  0
  3  4  1  0  0  0
  4  5  2  0  0  0
  4 41  1  0  0  0
  5 10  1  0  0  0
  5  6  1  0  0  0
  6  7  2  0  0  0
  6 15  1  0  0  0
  7  8  1  0  0  0
  7 42  1  0  0  0
  8  9  2  0  0  0
  8 43  1  0  0  0
  9 10  1  0  0  0
  9 62  1  0  0  0
 10 11  2  0  0  0
 11 12  1  0  0  0
 11 44  1  0  0  0
 12 13  1  0  0  0
 13 14  1  0  0  0
 14 45  1  0  0  0
 14 46  1  0  0  0
 14 47  1  0  0  0
 15 16  1  0  0  0
 16 21  2  0  0  0
 16 17  1  0  0  0
 17 18  2  0  0  0
 17 48  1  0  0  0
 18 19  1  0  0  0
 18 49  1  0  0  0
 19 20  2  0  0  0
 19 22  1  0  0  0
 20 21  1  0  0  0
 20 50  1  0  0  0
 21 51  1  0  0  0
 22 23  1  0  0  0
 22 52  1  0  0  0
 23 24  2  0  0  0
 23 25  1  0  0  0
 25 27  1  0  0  0
 25 26  1  0  0  0
 25 28  1  0  0  0
 26 27  1  0  0  0
 26 53  1  0  0  0
 26 54  1  0  0  0
 27 55  1  0  0  0
 27 56  1  0  0  0
 28 29  2  0  0  0
 28 30  1  0  0  0
 30 31  1  0  0  0
 30 57  1  0  0  0
 31 36  2  0  0  0
 31 32  1  0  0  0
 32 33  2  0  0  0
 32 58  1  0  0  0
 33 34  1  0  0  0
 33 59  1  0  0  0
 34 35  2  0  0  0
 34 37  1  0  0  0
 35 36  1  0  0  0
 35 60  1  0  0  0
 36 61  1  0  0  0
M  CHG  1   9   1
M  END
> <s_m_source_file>
/Users/andrea/Development/mcce-charges/epik_inhibitors/output/Cabozantinib/Cabozantinib-input.mol2

> <i_m_source_file_index>
1

> <r_lp_tautomer_probability>
1

> <r_epik_Ionization_Penalty>
  0.3008

> <r_epik_Ionization_Penalty_Charging>
  0.3007

> <r_epik_Ionization_Penalty_Neutral>
  0.0000

> <r_epik_State_Penalty>
  0.2982

> <i_epik_Tot_Q>
1

$$$$
~{N}1-[4-[(6,7-dimethoxy-4-quinolyl)oxy]phenyl]-~{N}1'-(4-fluorophenyl)cyclopropane-1,1-dicarboxamide
                    3D
 Structure written by MMmdl.
 61 65  0  0  1  0            999 V2000
    0.6581    5.3258    3.4394 C   0  0  0  0  0  0
   -0.7597    5.2342    3.3634 O   0  0  0  0  0  0
   -1.3950    6.1738    2.6108 C   0  0  0  0  0  0
   -1.6183    5.9369    1.2575 C   0  0  0  0  0  0
   -2.2725    6.8963    0.4661 C   0  0  0  0  0  0
   -2.5102    6.6837   -0.8986 C   0  0  0  0  0  0
   -3.1587    7.6508   -1.6529 C   0  0  0  0  0  0
   -3.5497    8.8068   -1.0084 C   0  0  0  0  0  0
   -3.3398    9.0510    0.3055 N   0  0  0  0  0  0
   -2.7101    8.1107    1.0351 C   0  0  0  0  0  0
   -2.4739    8.3213    2.3908 C   0  0  0  0  0  0
   -1.8235    7.3676    3.1778 C   0  0  0  0  0  0
   -1.6160    7.6211    4.5002 O   0  0  0  0  0  0
   -2.6362    7.2081    5.4071 C   0  0  0  0  0  0
   -2.1171    5.5352   -1.5219 O   0  0  0  0  0  0
   -1.2282    5.6507   -2.5753 C   0  0  0  0  0  0
   -1.4434    4.9317   -3.7511 C   0  0  0  0  0  0
   -0.5469    5.0476   -4.8135 C   0  0  0  0  0  0
    0.5647    5.8825   -4.7001 C   0  0  0  0  0  0
    0.7799    6.6014   -3.5242 C   0  0  0  0  0  0
   -0.1165    6.4855   -2.4619 C   0  0  0  0  0  0
    1.4633    5.9956   -5.7613 N   0  0  0  0  0  0
    2.6251    6.7759   -5.8319 C   0  0  0  0  0  0
    3.0814    7.5142   -4.9648 O   0  0  0  0  0  0
    3.3240    6.6194   -7.1590 C   0  0  0  0  0  0
    4.7807    6.2483   -7.0928 C   0  0  0  0  0  0
    3.7704    5.2245   -7.5040 C   0  0  0  0  0  0
    2.8750    7.4975   -8.2429 C   0  0  0  0  0  0
    2.4068    7.0560   -9.3136 O   0  0  0  0  0  0
    3.0350    8.8601   -7.9398 N   0  0  0  0  0  0
    2.7194    9.9927   -8.7271 C   0  0  0  0  0  0
    2.9595   11.2748   -8.2326 C   0  0  0  0  0  0
    2.6478   12.3912   -9.0085 C   0  0  0  0  0  0
    2.0960   12.2257  -10.2789 C   0  0  0  0  0  0
    1.8559   10.9437  -10.7733 C   0  0  0  0  0  0
    2.1676    9.8272   -9.9974 C   0  0  0  0  0  0
    1.7941   13.2978  -11.0228 F   0  0  0  0  0  0
    1.0445    4.5140    4.0732 H   0  0  0  0  0  0
    0.9400    6.2962    3.8740 H   0  0  0  0  0  0
    1.0858    5.2380    2.4298 H   0  0  0  0  0  0
   -1.2771    4.9976    0.8271 H   0  0  0  0  0  0
   -3.3544    7.5096   -2.7099 H   0  0  0  0  0  0
   -4.0614    9.5977   -1.5470 H   0  0  0  0  0  0
   -2.8032    9.2509    2.8530 H   0  0  0  0  0  0
   -2.3427    7.4718    6.4339 H   0  0  0  0  0  0
   -2.7737    6.1192    5.3332 H   0  0  0  0  0  0
   -3.5791    7.7148    5.1537 H   0  0  0  0  0  0
   -2.3080    4.2804   -3.8456 H   0  0  0  0  0  0
   -0.7238    4.4821   -5.7249 H   0  0  0  0  0  0
    1.6432    7.2544   -3.4247 H   0  0  0  0  0  0
    0.0564    7.0486   -1.5487 H   0  0  0  0  0  0
    1.2951    5.4264   -6.6875 H   0  0  0  0  0  0
    5.3530    6.8848   -7.7837 H   0  0  0  0  0  0
    5.1504    6.3955   -6.0673 H   0  0  0  0  0  0
    3.2861    4.5063   -6.8260 H   0  0  0  0  0  0
    3.4888    4.9957   -8.5424 H   0  0  0  0  0  0
    3.4597    9.1619   -6.9710 H   0  0  0  0  0  0
    3.3894   11.4158   -7.2442 H   0  0  0  0  0  0
    2.8341   13.3898   -8.6243 H   0  0  0  0  0  0
    1.4261   10.8158  -11.7625 H   0  0  0  0  0  0
    1.9762    8.8329  -10.3930 H   0  0  0  0  0  0
  1  2  1  0  0  0
  1 38  1  0  0  0
  1 39  1  0  0  0
  1 40  1  0  0  0
  2  3  1  0  0  0
  3 12  2  0  0  0
  3  4  1  0  0  0
  4  5  2  0  0  0
  4 41  1  0  0  0
  5 10  1  0  0  0
  5  6  1  0  0  0
  6  7  2  0  0  0
  6 15  1  0  0  0
  7  8  1  0  0  0
  7 42  1  0  0  0
  8  9  2  0  0  0
  8 43  1  0  0  0
  9 10  1  0  0  0
 10 11  2  0  0  0
 11 12  1  0  0  0
 11 44  1  0  0  0
 12 13  1  0  0  0
 13 14  1  0  0  0
 14 45  1  0  0  0
 14 46  1  0  0  0
 14 47  1  0  0  0
 15 16  1  0  0  0
 16 21  2  0  0  0
 16 17  1  0  0  0
 17 18  2  0  0  0
 17 48  1  0  0  0
 18 19  1  0  0  0
 18 49  1  0  0  0
 19 20  2  0  0  0
 19 22  1  0  0  0
 20 21  1  0  0  0
 20 50  1  0  0  0
 21 51  1  0  0  0
 22 23  1  0  0  0
 22 52  1  0  0  0
 23 24  2  0  0  0
 23 25  1  0  0  0
 25 27  1  0  0  0
 25 26  1  0  0  0
 25 28  1  0  0  0
 26 27  1  0  0  0
 26 53  1  0  0  0
 26 54  1  0  0  0
 27 55  1  0  0  0
 27 56  1  0  0  0
 28 29  2  0  0  0
 28 30  1  0  0  0
 30 31  1  0  0  0
 30 57  1  0  0  0
 31 36  2  0  0  0
 31 32  1  0  0  0
 32 33  2  0  0  0
 32 58  1  0  0  0
 33 34  1  0  0  0
 33 59  1  0  0  0
 34 35  2  0  0  0
 34 37  1  0  0  0
 35 36  1  0  0  0
 35 60  1  0  0  0
 36 61  1  0  0  0
M  END
> <s_m_source_file>
/Users/andrea/Development/mcce-charges/epik_inhibitors/output/Cabozantinib/Cabozantinib-input.mol2

> <i_m_source_file_index>
1

> <r_lp_tautomer_probability>
1

> <r_epik_Ionization_Penalty>
  0.5458

> <r_epik_Ionization_Penalty_Charging>
  0.0000

> <r_epik_Ionization_Penalty_Neutral>
  0.5458

> <r_epik_State_Penalty>
  0.5497

> <i_epik_Tot_Q>
0

$$$$
~{N}1-[4-[(6,7-dimethoxy-4-quinolyl)oxy]phenyl]-~{N}1'-(4-fluorophenyl)cyclopropane-1,1-dicarboxamide
                    3D
 Structure written by MMmdl.
 62 66  0  0  1  0            999 V2000
    0.6581    5.3258    3.4394 C   0  0  0  0  0  0
   -0.7597    5.2342    3.3634 O   0  0  0  0  0  0
   -1.3950    6.1738    2.6108 C   0  0  0  0  0  0
   -1.6183    5.9369    1.2575 C   0  0  0  0  0  0
   -2.2725    6.8963    0.4661 C   0  0  0  0  0  0
   -2.5102    6.6837   -0.8986 C   0  0  0  0  0  0
   -3.1587    7.6508   -1.6529 C   0  0  0  0  0  0
   -3.5497    8.8068   -1.0084 C   0  0  0  0  0  0
   -3.3398    9.0510    0.3055 N   0  3  0  0  0  0
   -2.7101    8.1107    1.0351 C   0  0  0  0  0  0
   -2.4739    8.3213    2.3908 C   0  0  0  0  0  0
   -1.8235    7.3676    3.1778 C   0  0  0  0  0  0
   -1.6160    7.6211    4.5002 O   0  0  0  0  0  0
   -2.6362    7.2081    5.4071 C   0  0  0  0  0  0
   -2.1171    5.5352   -1.5219 O   0  0  0  0  0  0
   -1.2282    5.6507   -2.5753 C   0  0  0  0  0  0
   -1.4434    4.9317   -3.7511 C   0  0  0  0  0  0
   -0.5469    5.0476   -4.8135 C   0  0  0  0  0  0
    0.5647    5.8825   -4.7001 C   0  0  0  0  0  0
    0.7799    6.6014   -3.5242 C   0  0  0  0  0  0
   -0.1165    6.4855   -2.4619 C   0  0  0  0  0  0
    1.4633    5.9956   -5.7613 N   0  5  0  0  0  0
    2.6251    6.7759   -5.8319 C   0  0  0  0  0  0
    3.0814    7.5142   -4.9648 O   0  3  0  0  0  0
    3.3240    6.6194   -7.1590 C   0  0  0  0  0  0
    4.7807    6.2483   -7.0928 C   0  0  0  0  0  0
    3.7704    5.2245   -7.5040 C   0  0  0  0  0  0
    2.8750    7.4975   -8.2429 C   0  0  0  0  0  0
    2.4068    7.0560   -9.3136 O   0  0  0  0  0  0
    3.0350    8.8601   -7.9398 N   0  0  0  0  0  0
    2.7194    9.9927   -8.7271 C   0  0  0  0  0  0
    2.9595   11.2748   -8.2326 C   0  0  0  0  0  0
    2.6478   12.3912   -9.0085 C   0  0  0  0  0  0
    2.0960   12.2257  -10.2789 C   0  0  0  0  0  0
    1.8559   10.9437  -10.7733 C   0  0  0  0  0  0
    2.1676    9.8272   -9.9974 C   0  0  0  0  0  0
    1.7941   13.2978  -11.0228 F   0  0  0  0  0  0
    1.0445    4.5140    4.0732 H   0  0  0  0  0  0
    0.9400    6.2962    3.8740 H   0  0  0  0  0  0
    1.0858    5.2380    2.4298 H   0  0  0  0  0  0
   -1.2771    4.9976    0.8271 H   0  0  0  0  0  0
   -3.3544    7.5096   -2.7099 H   0  0  0  0  0  0
   -4.0614    9.5977   -1.5470 H   0  0  0  0  0  0
   -2.8032    9.2509    2.8530 H   0  0  0  0  0  0
   -2.3427    7.4718    6.4339 H   0  0  0  0  0  0
   -2.7737    6.1192    5.3332 H   0  0  0  0  0  0
   -3.5791    7.7148    5.1537 H   0  0  0  0  0  0
   -2.3080    4.2804   -3.8456 H   0  0  0  0  0  0
   -0.7238    4.4821   -5.7249 H   0  0  0  0  0  0
    1.6432    7.2544   -3.4247 H   0  0  0  0  0  0
    0.0564    7.0486   -1.5487 H   0  0  0  0  0  0
    5.3530    6.8848   -7.7837 H   0  0  0  0  0  0
    5.1504    6.3955   -6.0673 H   0  0  0  0  0  0
    3.2861    4.5063   -6.8260 H   0  0  0  0  0  0
    3.4888    4.9957   -8.5424 H   0  0  0  0  0  0
    3.4597    9.1619   -6.9710 H   0  0  0  0  0  0
    3.3894   11.4158   -7.2442 H   0  0  0  0  0  0
    2.8341   13.3898   -8.6243 H   0  0  0  0  0  0
    1.4261   10.8158  -11.7625 H   0  0  0  0  0  0
    1.9762    8.8329  -10.3930 H   0  0  0  0  0  0
    4.0094    8.0744   -5.1519 H   0  0  0  0  0  0
   -3.6807    9.9975    0.7503 H   0  0  0  0  0  0
  1  2  1  0  0  0
  1 38  1  0  0  0
  1 39  1  0  0  0
  1 40  1  0  0  0
  2  3  1  0  0  0
  3 12  2  0  0  0
  3  4  1  0  0  0
  4  5  2  0  0  0
  4 41  1  0  0  0
  5 10  1  0  0  0
  5  6  1  0  0  0
  6  7  2  0  0  0
  6 15  1  0  0  0
  7  8  1  0  0  0
  7 42  1  0  0  0
  8  9  2  0  0  0
  8 43  1  0  0  0
  9 10  1  0  0  0
  9 62  1  0  0  0
 10 11  2  0  0  0
 11 12  1  0  0  0
 11 44  1  0  0  0
 12 13  1  0  0  0
 13 14  1  0  0  0
 14 45  1  0  0  0
 14 46  1  0  0  0
 14 47  1  0  0  0
 15 16  1  0  0  0
 16 21  2  0  0  0
 16 17  1  0  0  0
 17 18  2  0  0  0
 17 48  1  0  0  0
 18 19  1  0  0  0
 18 49  1  0  0  0
 19 20  2  0  0  0
 19 22  1  0  0  0
 20 21  1  0  0  0
 20 50  1  0  0  0
 21 51  1  0  0  0
 22 23  1  0  0  0
 23 24  2  0  0  0
 23 25  1  0  0  0
 24 61  1  0  0  0
 25 27  1  0  0  0
 25 26  1  0  0  0
 25 28  1  0  0  0
 26 27  1  0  0  0
 26 52  1  0  0  0
 26 53  1  0  0  0
 27 54  1  0  0  0
 27 55  1  0  0  0
 28 29  2  0  0  0
 28 30  1  0  0  0
 30 31  1  0  0  0
 30 56  1  0  0  0
 31 36  2  0  0  0
 31 32  1  0  0  0
 32 33  2  0  0  0
 32 57  1  0  0  0
 33 34  1  0  0  0
 33 58  1  0  0  0
 34 35  2  0  0  0
 34 37  1  0  0  0
 35 36  1  0  0  0
 35 59  1  0  0  0
 36 60  1  0  0  0
M  CHG  3   9   1  22  -1  24   1
M  END
> <s_m_source_file>
/Users/andrea/Development/mcce-charges/epik_inhibitors/output/Cabozantinib/Cabozantinib-input.mol2

> <i_m_source_file_index>
1

> <r_epik_Ionization_Penalty>
  0.3069

> <r_epik_Ionization_Penalty_Charging>
  0.3069

> <r_epik_Ionization_Penalty_Neutral>
  0.0000

> <r_epik_State_Penalty>
  6.6354

> <i_epik_Tot_Q>
1

$$$$
~{N}1-[4-[(6,7-dimethoxy-4-quinolyl)oxy]phenyl]-~{N}1'-(4-fluorophenyl)cyclopropane-1,1-dicarboxamide
                    3D
 Structure written by MMmdl.
 62 66  0  0  1  0            999 V2000
    0.6581    5.3258    3.4394 C   0  0  0  0  0  0
   -0.7597    5.2342    3.3634 O   0  0  0  0  0  0
   -1.3950    6.1738    2.6108 C   0  0  0  0  0  0
   -1.6183    5.9369    1.2575 C   0  0  0  0  0  0
   -2.2725    6.8963    0.4661 C   0  0  0  0  0  0
   -2.5102    6.6837   -0.8986 C   0  0  0  0  0  0
   -3.1587    7.6508   -1.6529 C   0  0  0  0  0  0
   -3.5497    8.8068   -1.0084 C   0  0  0  0  0  0
   -3.3398    9.0510    0.3055 N   0  3  0  0  0  0
   -2.7101    8.1107    1.0351 C   0  0  0  0  0  0
   -2.4739    8.3213    2.3908 C   0  0  0  0  0  0
   -1.8235    7.3676    3.1778 C   0  0  0  0  0  0
   -1.6160    7.6211    4.5002 O   0  0  0  0  0  0
   -2.6362    7.2081    5.4071 C   0  0  0  0  0  0
   -2.1171    5.5352   -1.5219 O   0  0  0  0  0  0
   -1.2282    5.6507   -2.5753 C   0  0  0  0  0  0
   -1.4434    4.9317   -3.7511 C   0  0  0  0  0  0
   -0.5469    5.0476   -4.8135 C   0  0  0  0  0  0
    0.5647    5.8825   -4.7001 C   0  0  0  0  0  0
    0.7799    6.6014   -3.5242 C   0  0  0  0  0  0
   -0.1165    6.4855   -2.4619 C   0  0  0  0  0  0
    1.4633    5.9956   -5.7613 N   0  0  0  0  0  0
    2.6251    6.7759   -5.8319 C   0  0  0  0  0  0
    3.0814    7.5142   -4.9648 O   0  0  0  0  0  0
    3.3240    6.6194   -7.1590 C   0  0  0  0  0  0
    4.7807    6.2483   -7.0928 C   0  0  0  0  0  0
    3.7704    5.2245   -7.5040 C   0  0  0  0  0  0
    2.8750    7.4975   -8.2429 C   0  0  0  0  0  0
    2.4068    7.0560   -9.3136 O   0  3  0  0  0  0
    3.0350    8.8601   -7.9398 N   0  5  0  0  0  0
    2.7194    9.9927   -8.7271 C   0  0  0  0  0  0
    2.9595   11.2748   -8.2326 C   0  0  0  0  0  0
    2.6478   12.3912   -9.0085 C   0  0  0  0  0  0
    2.0960   12.2257  -10.2789 C   0  0  0  0  0  0
    1.8559   10.9437  -10.7733 C   0  0  0  0  0  0
    2.1676    9.8272   -9.9974 C   0  0  0  0  0  0
    1.7941   13.2978  -11.0228 F   0  0  0  0  0  0
    1.0445    4.5140    4.0732 H   0  0  0  0  0  0
    0.9400    6.2962    3.8740 H   0  0  0  0  0  0
    1.0858    5.2380    2.4298 H   0  0  0  0  0  0
   -1.2771    4.9976    0.8271 H   0  0  0  0  0  0
   -3.3544    7.5096   -2.7099 H   0  0  0  0  0  0
   -4.0614    9.5977   -1.5470 H   0  0  0  0  0  0
   -2.8032    9.2509    2.8530 H   0  0  0  0  0  0
   -2.3427    7.4718    6.4339 H   0  0  0  0  0  0
   -2.7737    6.1192    5.3332 H   0  0  0  0  0  0
   -3.5791    7.7148    5.1537 H   0  0  0  0  0  0
   -2.3080    4.2804   -3.8456 H   0  0  0  0  0  0
   -0.7238    4.4821   -5.7249 H   0  0  0  0  0  0
    1.6432    7.2544   -3.4247 H   0  0  0  0  0  0
    0.0564    7.0486   -1.5487 H   0  0  0  0  0  0
    1.2951    5.4264   -6.6875 H   0  0  0  0  0  0
    5.3530    6.8848   -7.7837 H   0  0  0  0  0  0
    5.1504    6.3955   -6.0673 H   0  0  0  0  0  0
    3.2861    4.5063   -6.8260 H   0  0  0  0  0  0
    3.4888    4.9957   -8.5424 H   0  0  0  0  0  0
    3.3894   11.4158   -7.2442 H   0  0  0  0  0  0
    2.8341   13.3898   -8.6243 H   0  0  0  0  0  0
    1.4261   10.8158  -11.7625 H   0  0  0  0  0  0
    1.9762    8.8329  -10.3930 H   0  0  0  0  0  0
    2.0819    7.7526  -10.1005 H   0  0  0  0  0  0
   -3.6807    9.9975    0.7503 H   0  0  0  0  0  0
  1  2  1  0  0  0
  1 38  1  0  0  0
  1 39  1  0  0  0
  1 40  1  0  0  0
  2  3  1  0  0  0
  3 12  2  0  0  0
  3  4  1  0  0  0
  4  5  2  0  0  0
  4 41  1  0  0  0
  5 10  1  0  0  0
  5  6  1  0  0  0
  6  7  2  0  0  0
  6 15  1  0  0  0
  7  8  1  0  0  0
  7 42  1  0  0  0
  8  9  2  0  0  0
  8 43  1  0  0  0
  9 10  1  0  0  0
  9 62  1  0  0  0
 10 11  2  0  0  0
 11 12  1  0  0  0
 11 44  1  0  0  0
 12 13  1  0  0  0
 13 14  1  0  0  0
 14 45  1  0  0  0
 14 46  1  0  0  0
 14 47  1  0  0  0
 15 16  1  0  0  0
 16 21  2  0  0  0
 16 17  1  0  0  0
 17 18  2  0  0  0
 17 48  1  0  0  0
 18 19  1  0  0  0
 18 49  1  0  0  0
 19 20  2  0  0  0
 19 22  1  0  0  0
 20 21  1  0  0  0
 20 50  1  0  0  0
 21 51  1  0  0  0
 22 23  1  0  0  0
 22 52  1  0  0  0
 23 24  2  0  0  0
 23 25  1  0  0  0
 25 27  1  0  0  0
 25 26  1  0  0  0
 25 28  1  0  0  0
 26 27  1  0  0  0
 26 53  1  0  0  0
 26 54  1  0  0  0
 27 55  1  0  0  0
 27 56  1  0  0  0
 28 29  2  0  0  0
 28 30  1  0  0  0
 29 61  1  0  0  0
 30 31  1  0  0  0
 31 36  2  0  0  0
 31 32  1  0  0  0
 32 33  2  0  0  0
 32 57  1  0  0  0
 33 34  1  0  0  0
 33 58  1  0  0  0
 34 35  2  0  0  0
 34 37  1  0  0  0
 35 36  1  0  0  0
 35 59  1  0  0  0
 36 60  1  0  0  0
M  CHG  3   9   1  29   1  30  -1
M  END
> <s_m_source_file>
/Users/andrea/Development/mcce-charges/epik_inhibitors/output/Cabozantinib/Cabozantinib-input.mol2

> <i_m_source_file_index>
1

> <r_epik_Ionization_Penalty>
  0.3069

> <r_epik_Ionization_Penalty_Charging>
  0.3069

> <r_epik_Ionization_Penalty_Neutral>
  0.0000

> <r_epik_State_Penalty>
  6.8154

> <i_epik_Tot_Q>
1

$$$$
~{N}1-[4-[(6,7-dimethoxy-4-quinolyl)oxy]phenyl]-~{N}1'-(4-fluorophenyl)cyclopropane-1,1-dicarboxamide
                    3D
 Structure written by MMmdl.
 61 65  0  0  1  0            999 V2000
    0.6581    5.3258    3.4394 C   0  0  0  0  0  0
   -0.7597    5.2342    3.3634 O   0  0  0  0  0  0
   -1.3950    6.1738    2.6108 C   0  0  0  0  0  0
   -1.6183    5.9369    1.2575 C   0  0  0  0  0  0
   -2.2725    6.8963    0.4661 C   0  0  0  0  0  0
   -2.5102    6.6837   -0.8986 C   0  0  0  0  0  0
   -3.1587    7.6508   -1.6529 C   0  0  0  0  0  0
   -3.5497    8.8068   -1.0084 C   0  0  0  0  0  0
   -3.3398    9.0510    0.3055 N   0  3  0  0  0  0
   -2.7101    8.1107    1.0351 C   0  0  0  0  0  0
   -2.4739    8.3213    2.3908 C   0  0  0  0  0  0
   -1.8235    7.3676    3.1778 C   0  0  0  0  0  0
   -1.6160    7.6211    4.5002 O   0  0  0  0  0  0
   -2.6362    7.2081    5.4071 C   0  0  0  0  0  0
   -2.1171    5.5352   -1.5219 O   0  0  0  0  0  0
   -1.2282    5.6507   -2.5753 C   0  0  0  0  0  0
   -1.4434    4.9317   -3.7511 C   0  0  0  0  0  0
   -0.5469    5.0476   -4.8135 C   0  0  0  0  0  0
    0.5647    5.8825   -4.7001 C   0  0  0  0  0  0
    0.7799    6.6014   -3.5242 C   0  0  0  0  0  0
   -0.1165    6.4855   -2.4619 C   0  0  0  0  0  0
    1.4633    5.9956   -5.7613 N   0  0  0  0  0  0
    2.6251    6.7759   -5.8319 C   0  0  0  0  0  0
    3.0814    7.5142   -4.9648 O   0  5  0  0  0  0
    3.3240    6.6194   -7.1590 C   0  0  0  0  0  0
    4.7807    6.2483   -7.0928 C   0  0  0  0  0  0
    3.7704    5.2245   -7.5040 C   0  0  0  0  0  0
    2.8750    7.4975   -8.2429 C   0  0  0  0  0  0
    2.4068    7.0560   -9.3136 O   0  0  0  0  0  0
    3.0350    8.8601   -7.9398 N   0  0  0  0  0  0
    2.7194    9.9927   -8.7271 C   0  0  0  0  0  0
    2.9595   11.2748   -8.2326 C   0  0  0  0  0  0
    2.6478   12.3912   -9.0085 C   0  0  0  0  0  0
    2.0960   12.2257  -10.2789 C   0  0  0  0  0  0
    1.8559   10.9437  -10.7733 C   0  0  0  0  0  0
    2.1676    9.8272   -9.9974 C   0  0  0  0  0  0
    1.7941   13.2978  -11.0228 F   0  0  0  0  0  0
    1.0445    4.5140    4.0732 H   0  0  0  0  0  0
    0.9400    6.2962    3.8740 H   0  0  0  0  0  0
    1.0858    5.2380    2.4298 H   0  0  0  0  0  0
   -1.2771    4.9976    0.8271 H   0  0  0  0  0  0
   -3.3544    7.5096   -2.7099 H   0  0  0  0  0  0
   -4.0614    9.5977   -1.5470 H   0  0  0  0  0  0
   -2.8032    9.2509    2.8530 H   0  0  0  0  0  0
   -2.3427    7.4718    6.4339 H   0  0  0  0  0  0
   -2.7737    6.1192    5.3332 H   0  0  0  0  0  0
   -3.5791    7.7148    5.1537 H   0  0  0  0  0  0
   -2.3080    4.2804   -3.8456 H   0  0  0  0  0  0
   -0.7238    4.4821   -5.7249 H   0  0  0  0  0  0
    1.6432    7.2544   -3.4247 H   0  0  0  0  0  0
    0.0564    7.0486   -1.5487 H   0  0  0  0  0  0
    5.3530    6.8848   -7.7837 H   0  0  0  0  0  0
    5.1504    6.3955   -6.0673 H   0  0  0  0  0  0
    3.2861    4.5063   -6.8260 H   0  0  0  0  0  0
    3.4888    4.9957   -8.5424 H   0  0  0  0  0  0
    3.4597    9.1619   -6.9710 H   0  0  0  0  0  0
    3.3894   11.4158   -7.2442 H   0  0  0  0  0  0
    2.8341   13.3898   -8.6243 H   0  0  0  0  0  0
    1.4261   10.8158  -11.7625 H   0  0  0  0  0  0
    1.9762    8.8329  -10.3930 H   0  0  0  0  0  0
   -3.6807    9.9975    0.7503 H   0  0  0  0  0  0
  1  2  1  0  0  0
  1 38  1  0  0  0
  1 39  1  0  0  0
  1 40  1  0  0  0
  2  3  1  0  0  0
  3 12  2  0  0  0
  3  4  1  0  0  0
  4  5  2  0  0  0
  4 41  1  0  0  0
  5 10  1  0  0  0
  5  6  1  0  0  0
  6  7  2  0  0  0
  6 15  1  0  0  0
  7  8  1  0  0  0
  7 42  1  0  0  0
  8  9  2  0  0  0
  8 43  1  0  0  0
  9 10  1  0  0  0
  9 61  1  0  0  0
 10 11  2  0  0  0
 11 12  1  0  0  0
 11 44  1  0  0  0
 12 13  1  0  0  0
 13 14  1  0  0  0
 14 45  1  0  0  0
 14 46  1  0  0  0
 14 47  1  0  0  0
 15 16  1  0  0  0
 16 21  2  0  0  0
 16 17  1  0  0  0
 17 18  2  0  0  0
 17 48  1  0  0  0
 18 19  1  0  0  0
 18 49  1  0  0  0
 19 20  2  0  0  0
 19 22  1  0  0  0
 20 21  1  0  0  0
 20 50  1  0  0  0
 21 51  1  0  0  0
 22 23  2  0  0  0
 23 24  1  0  0  0
 23 25  1  0  0  0
 25 27  1  0  0  0
 25 26  1  0  0  0
 25 28  1  0  0  0
 26 27  1  0  0  0
 26 52  1  0  0  0
 26 53  1  0  0  0
 27 54  1  0  0  0
 27 55  1  0  0  0
 28 29  2  0  0  0
 28 30  1  0  0  0
 30 31  1  0  0  0
 30 56  1  0  0  0
 31 36  2  0  0  0
 31 32  1  0  0  0
 32 33  2  0  0  0
 32 57  1  0  0  0
 33 34  1  0  0  0
 33 58  1  0  0  0
 34 35  2  0  0  0
 34 37  1  0  0  0
 35 36  1  0  0  0
 35 59  1  0  0  0
 36 60  1  0  0  0
M  CHG  2   9   1  24  -1
M  END
> <s_m_source_file>
/Users/andrea/Development/mcce-charges/epik_inhibitors/output/Cabozantinib/Cabozantinib-input.mol2

> <i_m_source_file_index>
1

> <r_epik_Ionization_Penalty>
  6.4615

> <r_epik_Ionization_Penalty_Charging>
  6.4614

> <r_epik_Ionization_Penalty_Neutral>
  0.0000

> <r_epik_State_Penalty>
  6.8852

> <i_epik_Tot_Q>
0

$$$$
~{N}1-[4-[(6,7-dimethoxy-4-quinolyl)oxy]phenyl]-~{N}1'-(4-fluorophenyl)cyclopropane-1,1-dicarboxamide
                    3D
 Structure written by MMmdl.
 61 65  0  0  1  0            999 V2000
    0.6581    5.3258    3.4394 C   0  0  0  0  0  0
   -0.7597    5.2342    3.3634 O   0  0  0  0  0  0
   -1.3950    6.1738    2.6108 C   0  0  0  0  0  0
   -1.6183    5.9369    1.2575 C   0  0  0  0  0  0
   -2.2725    6.8963    0.4661 C   0  0  0  0  0  0
   -2.5102    6.6837   -0.8986 C   0  0  0  0  0  0
   -3.1587    7.6508   -1.6529 C   0  0  0  0  0  0
   -3.5497    8.8068   -1.0084 C   0  0  0  0  0  0
   -3.3398    9.0510    0.3055 N   0  0  0  0  0  0
   -2.7101    8.1107    1.0351 C   0  0  0  0  0  0
   -2.4739    8.3213    2.3908 C   0  0  0  0  0  0
   -1.8235    7.3676    3.1778 C   0  0  0  0  0  0
   -1.6160    7.6211    4.5002 O   0  0  0  0  0  0
   -2.6362    7.2081    5.4071 C   0  0  0  0  0  0
   -2.1171    5.5352   -1.5219 O   0  0  0  0  0  0
   -1.2282    5.6507   -2.5753 C   0  0  0  0  0  0
   -1.4434    4.9317   -3.7511 C   0  0  0  0  0  0
   -0.5469    5.0476   -4.8135 C   0  0  0  0  0  0
    0.5647    5.8825   -4.7001 C   0  0  0  0  0  0
    0.7799    6.6014   -3.5242 C   0  0  0  0  0  0
   -0.1165    6.4855   -2.4619 C   0  0  0  0  0  0
    1.4633    5.9956   -5.7613 N   0  5  0  0  0  0
    2.6251    6.7759   -5.8319 C   0  0  0  0  0  0
    3.0814    7.5142   -4.9648 O   0  3  0  0  0  0
    3.3240    6.6194   -7.1590 C   0  0  0  0  0  0
    4.7807    6.2483   -7.0928 C   0  0  0  0  0  0
    3.7704    5.2245   -7.5040 C   0  0  0  0  0  0
    2.8750    7.4975   -8.2429 C   0  0  0  0  0  0
    2.4068    7.0560   -9.3136 O   0  0  0  0  0  0
    3.0350    8.8601   -7.9398 N   0  0  0  0  0  0
    2.7194    9.9927   -8.7271 C   0  0  0  0  0  0
    2.9595   11.2748   -8.2326 C   0  0  0  0  0  0
    2.6478   12.3912   -9.0085 C   0  0  0  0  0  0
    2.0960   12.2257  -10.2789 C   0  0  0  0  0  0
    1.8559   10.9437  -10.7733 C   0  0  0  0  0  0
    2.1676    9.8272   -9.9974 C   0  0  0  0  0  0
    1.7941   13.2978  -11.0228 F   0  0  0  0  0  0
    1.0445    4.5140    4.0732 H   0  0  0  0  0  0
    0.9400    6.2962    3.8740 H   0  0  0  0  0  0
    1.0858    5.2380    2.4298 H   0  0  0  0  0  0
   -1.2771    4.9976    0.8271 H   0  0  0  0  0  0
   -3.3544    7.5096   -2.7099 H   0  0  0  0  0  0
   -4.0614    9.5977   -1.5470 H   0  0  0  0  0  0
   -2.8032    9.2509    2.8530 H   0  0  0  0  0  0
   -2.3427    7.4718    6.4339 H   0  0  0  0  0  0
   -2.7737    6.1192    5.3332 H   0  0  0  0  0  0
   -3.5791    7.7148    5.1537 H   0  0  0  0  0  0
   -2.3080    4.2804   -3.8456 H   0  0  0  0  0  0
   -0.7238    4.4821   -5.7249 H   0  0  0  0  0  0
    1.6432    7.2544   -3.4247 H   0  0  0  0  0  0
    0.0564    7.0486   -1.5487 H   0  0  0  0  0  0
    5.3530    6.8848   -7.7837 H   0  0  0  0  0  0
    5.1504    6.3955   -6.0673 H   0  0  0  0  0  0
    3.2861    4.5063   -6.8260 H   0  0  0  0  0  0
    3.4888    4.9957   -8.5424 H   0  0  0  0  0  0
    3.4597    9.1619   -6.9710 H   0  0  0  0  0  0
    3.3894   11.4158   -7.2442 H   0  0  0  0  0  0
    2.8341   13.3898   -8.6243 H   0  0  0  0  0  0
    1.4261   10.8158  -11.7625 H   0  0  0  0  0  0
    1.9762    8.8329  -10.3930 H   0  0  0  0  0  0
    4.0094    8.0744   -5.1519 H   0  0  0  0  0  0
  1  2  1  0  0  0
  1 38  1  0  0  0
  1 39  1  0  0  0
  1 40  1  0  0  0
  2  3  1  0  0  0
  3 12  2  0  0  0
  3  4  1  0  0  0
  4  5  2  0  0  0
  4 41  1  0  0  0
  5 10  1  0  0  0
  5  6  1  0  0  0
  6  7  2  0  0  0
  6 15  1  0  0  0
  7  8  1  0  0  0
  7 42  1  0  0  0
  8  9  2  0  0  0
  8 43  1  0  0  0
  9 10  1  0  0  0
 10 11  2  0  0  0
 11 12  1  0  0  0
 11 44  1  0  0  0
 12 13  1  0  0  0
 13 14  1  0  0  0
 14 45  1  0  0  0
 14 46  1  0  0  0
 14 47  1  0  0  0
 15 16  1  0  0  0
 16 21  2  0  0  0
 16 17  1  0  0  0
 17 18  2  0  0  0
 17 48  1  0  0  0
 18 19  1  0  0  0
 18 49  1  0  0  0
 19 20  2  0  0  0
 19 22  1  0  0  0
 20 21  1  0  0  0
 20 50  1  0  0  0
 21 51  1  0  0  0
 22 23  1  0  0  0
 23 24  2  0  0  0
 23 25  1  0  0  0
 24 61  1  0  0  0
 25 27  1  0  0  0
 25 26  1  0  0  0
 25 28  1  0  0  0
 26 27  1  0  0  0
 26 52  1  0  0  0
 26 53  1  0  0  0
 27 54  1  0  0  0
 27 55  1  0  0  0
 28 29  2  0  0  0
 28 30  1  0  0  0
 30 31  1  0  0  0
 30 56  1  0  0  0
 31 36  2  0  0  0
 31 32  1  0  0  0
 32 33  2  0  0  0
 32 57  1  0  0  0
 33 34  1  0  0  0
 33 58  1  0  0  0
 34 35  2  0  0  0
 34 37  1  0  0  0
 35 36  1  0  0  0
 35 59  1  0  0  0
 36 60  1  0  0  0
M  CHG  2  22  -1  24   1
M  END
> <s_m_source_file>
/Users/andrea/Development/mcce-charges/epik_inhibitors/output/Cabozantinib/Cabozantinib-input.mol2

> <i_m_source_file_index>
1

> <r_epik_Ionization_Penalty>
  0.5520

> <r_epik_Ionization_Penalty_Charging>
  0.0062

> <r_epik_Ionization_Penalty_Neutral>
  0.5458

> <r_epik_State_Penalty>
  6.8961

> <i_epik_Tot_Q>
0

$$$$
~{N}1-[4-[(6,7-dimethoxy-4-quinolyl)oxy]phenyl]-~{N}1'-(4-fluorophenyl)cyclopropane-1,1-dicarboxamide
                    3D
 Structure written by MMmdl.
 61 65  0  0  1  0            999 V2000
    0.6581    5.3258    3.4394 C   0  0  0  0  0  0
   -0.7597    5.2342    3.3634 O   0  0  0  0  0  0
   -1.3950    6.1738    2.6108 C   0  0  0  0  0  0
   -1.6183    5.9369    1.2575 C   0  0  0  0  0  0
   -2.2725    6.8963    0.4661 C   0  0  0  0  0  0
   -2.5102    6.6837   -0.8986 C   0  0  0  0  0  0
   -3.1587    7.6508   -1.6529 C   0  0  0  0  0  0
   -3.5497    8.8068   -1.0084 C   0  0  0  0  0  0
   -3.3398    9.0510    0.3055 N   0  3  0  0  0  0
   -2.7101    8.1107    1.0351 C   0  0  0  0  0  0
   -2.4739    8.3213    2.3908 C   0  0  0  0  0  0
   -1.8235    7.3676    3.1778 C   0  0  0  0  0  0
   -1.6160    7.6211    4.5002 O   0  0  0  0  0  0
   -2.6362    7.2081    5.4071 C   0  0  0  0  0  0
   -2.1171    5.5352   -1.5219 O   0  0  0  0  0  0
   -1.2282    5.6507   -2.5753 C   0  0  0  0  0  0
   -1.4434    4.9317   -3.7511 C   0  0  0  0  0  0
   -0.5469    5.0476   -4.8135 C   0  0  0  0  0  0
    0.5647    5.8825   -4.7001 C   0  0  0  0  0  0
    0.7799    6.6014   -3.5242 C   0  0  0  0  0  0
   -0.1165    6.4855   -2.4619 C   0  0  0  0  0  0
    1.4633    5.9956   -5.7613 N   0  0  0  0  0  0
    2.6251    6.7759   -5.8319 C   0  0  0  0  0  0
    3.0814    7.5142   -4.9648 O   0  0  0  0  0  0
    3.3240    6.6194   -7.1590 C   0  0  0  0  0  0
    4.7807    6.2483   -7.0928 C   0  0  0  0  0  0
    3.7704    5.2245   -7.5040 C   0  0  0  0  0  0
    2.8750    7.4975   -8.2429 C   0  0  0  0  0  0
    2.4068    7.0560   -9.3136 O   0  5  0  0  0  0
    3.0350    8.8601   -7.9398 N   0  0  0  0  0  0
    2.7194    9.9927   -8.7271 C   0  0  0  0  0  0
    2.9595   11.2748   -8.2326 C   0  0  0  0  0  0
    2.6478   12.3912   -9.0085 C   0  0  0  0  0  0
    2.0960   12.2257  -10.2789 C   0  0  0  0  0  0
    1.8559   10.9437  -10.7733 C   0  0  0  0  0  0
    2.1676    9.8272   -9.9974 C   0  0  0  0  0  0
    1.7941   13.2978  -11.0228 F   0  0  0  0  0  0
    1.0445    4.5140    4.0732 H   0  0  0  0  0  0
    0.9400    6.2962    3.8740 H   0  0  0  0  0  0
    1.0858    5.2380    2.4298 H   0  0  0  0  0  0
   -1.2771    4.9976    0.8271 H   0  0  0  0  0  0
   -3.3544    7.5096   -2.7099 H   0  0  0  0  0  0
   -4.0614    9.5977   -1.5470 H   0  0  0  0  0  0
   -2.8032    9.2509    2.8530 H   0  0  0  0  0  0
   -2.3427    7.4718    6.4339 H   0  0  0  0  0  0
   -2.7737    6.1192    5.3332 H   0  0  0  0  0  0
   -3.5791    7.7148    5.1537 H   0  0  0  0  0  0
   -2.2408    4.3337   -3.8327 H   0  0  0  0  0  0
   -0.7008    4.5316   -5.6561 H   0  0  0  0  0  0
    1.5772    7.1995   -3.4426 H   0  0  0  0  0  0
    0.0376    7.0013   -1.6192 H   0  0  0  0  0  0
    1.2951    5.4264   -6.6875 H   0  0  0  0  0  0
    5.3530    6.8848   -7.7837 H   0  0  0  0  0  0
    5.1504    6.3955   -6.0673 H   0  0  0  0  0  0
    3.2861    4.5063   -6.8260 H   0  0  0  0  0  0
    3.4888    4.9957   -8.5424 H   0  0  0  0  0  0
    3.3894   11.4158   -7.2442 H   0  0  0  0  0  0
    2.8341   13.3898   -8.6243 H   0  0  0  0  0  0
    1.4261   10.8158  -11.7625 H   0  0  0  0  0  0
    1.9762    8.8329  -10.3930 H   0  0  0  0  0  0
   -3.6807    9.9975    0.7503 H   0  0  0  0  0  0
  1  2  1  0  0  0
  1 38  1  0  0  0
  1 39  1  0  0  0
  1 40  1  0  0  0
  2  3  1  0  0  0
  3 12  2  0  0  0
  3  4  1  0  0  0
  4  5  2  0  0  0
  4 41  1  0  0  0
  5 10  1  0  0  0
  5  6  1  0  0  0
  6  7  2  0  0  0
  6 15  1  0  0  0
  7  8  1  0  0  0
  7 42  1  0  0  0
  8  9  2  0  0  0
  8 43  1  0  0  0
  9 10  1  0  0  0
  9 61  1  0  0  0
 10 11  2  0  0  0
 11 12  1  0  0  0
 11 44  1  0  0  0
 12 13  1  0  0  0
 13 14  1  0  0  0
 14 45  1  0  0  0
 14 46  1  0  0  0
 14 47  1  0  0  0
 15 16  1  0  0  0
 16 21  2  0  0  0
 16 17  1  0  0  0
 17 18  2  0  0  0
 17 48  1  0  0  0
 18 19  1  0  0  0
 18 49  1  0  0  0
 19 20  2  0  0  0
 19 22  1  0  0  0
 20 21  1  0  0  0
 20 50  1  0  0  0
 21 51  1  0  0  0
 22 23  1  0  0  0
 22 52  1  0  0  0
 23 24  2  0  0  0
 23 25  1  0  0  0
 25 27  1  0  0  0
 25 26  1  0  0  0
 25 28  1  0  0  0
 26 27  1  0  0  0
 26 53  1  0  0  0
 26 54  1  0  0  0
 27 55  1  0  0  0
 27 56  1  0  0  0
 28 29  1  0  0  0
 28 30  2  0  0  0
 30 31  1  0  0  0
 31 36  2  0  0  0
 31 32  1  0  0  0
 32 33  2  0  0  0
 32 57  1  0  0  0
 33 34  1  0  0  0
 33 58  1  0  0  0
 34 35  2  0  0  0
 34 37  1  0  0  0
 35 36  1  0  0  0
 35 59  1  0  0  0
 36 60  1  0  0  0
M  CHG  2   9   1  29  -1
M  END
> <s_m_source_file>
/Users/andrea/Development/mcce-charges/epik_inhibitors/output/Cabozantinib/Cabozantinib-input.mol2

> <i_m_source_file_index>
1

> <r_epik_Ionization_Penalty>
  6.5658

> <r_epik_Ionization_Penalty_Charging>
  6.5658

> <r_epik_Ionization_Penalty_Neutral>
  0.0000

> <r_epik_State_Penalty>
  6.9866

> <i_epik_Tot_Q>
0

$$$$
~{N}1-[4-[(6,7-dimethoxy-4-quinolyl)oxy]phenyl]-~{N}1'-(4-fluorophenyl)cyclopropane-1,1-dicarboxamide
                    3D
 Structure written by MMmdl.
 61 65  0  0  1  0            999 V2000
    0.6581    5.3258    3.4394 C   0  0  0  0  0  0
   -0.7597    5.2342    3.3634 O   0  0  0  0  0  0
   -1.3950    6.1738    2.6108 C   0  0  0  0  0  0
   -1.6183    5.9369    1.2575 C   0  0  0  0  0  0
   -2.2725    6.8963    0.4661 C   0  0  0  0  0  0
   -2.5102    6.6837   -0.8986 C   0  0  0  0  0  0
   -3.1587    7.6508   -1.6529 C   0  0  0  0  0  0
   -3.5497    8.8068   -1.0084 C   0  0  0  0  0  0
   -3.3398    9.0510    0.3055 N   0  0  0  0  0  0
   -2.7101    8.1107    1.0351 C   0  0  0  0  0  0
   -2.4739    8.3213    2.3908 C   0  0  0  0  0  0
   -1.8235    7.3676    3.1778 C   0  0  0  0  0  0
   -1.6160    7.6211    4.5002 O   0  0  0  0  0  0
   -2.6362    7.2081    5.4071 C   0  0  0  0  0  0
   -2.1171    5.5352   -1.5219 O   0  0  0  0  0  0
   -1.2282    5.6507   -2.5753 C   0  0  0  0  0  0
   -1.4434    4.9317   -3.7511 C   0  0  0  0  0  0
   -0.5469    5.0476   -4.8135 C   0  0  0  0  0  0
    0.5647    5.8825   -4.7001 C   0  0  0  0  0  0
    0.7799    6.6014   -3.5242 C   0  0  0  0  0  0
   -0.1165    6.4855   -2.4619 C   0  0  0  0  0  0
    1.4633    5.9956   -5.7613 N   0  0  0  0  0  0
    2.6251    6.7759   -5.8319 C   0  0  0  0  0  0
    3.0814    7.5142   -4.9648 O   0  0  0  0  0  0
    3.3240    6.6194   -7.1590 C   0  0  0  0  0  0
    4.7807    6.2483   -7.0928 C   0  0  0  0  0  0
    3.7704    5.2245   -7.5040 C   0  0  0  0  0  0
    2.8750    7.4975   -8.2429 C   0  0  0  0  0  0
    2.4068    7.0560   -9.3136 O   0  3  0  0  0  0
    3.0350    8.8601   -7.9398 N   0  5  0  0  0  0
    2.7194    9.9927   -8.7271 C   0  0  0  0  0  0
    2.9595   11.2748   -8.2326 C   0  0  0  0  0  0
    2.6478   12.3912   -9.0085 C   0  0  0  0  0  0
    2.0960   12.2257  -10.2789 C   0  0  0  0  0  0
    1.8559   10.9437  -10.7733 C   0  0  0  0  0  0
    2.1676    9.8272   -9.9974 C   0  0  0  0  0  0
    1.7941   13.2978  -11.0228 F   0  0  0  0  0  0
    1.0445    4.5140    4.0732 H   0  0  0  0  0  0
    0.9400    6.2962    3.8740 H   0  0  0  0  0  0
    1.0858    5.2380    2.4298 H   0  0  0  0  0  0
   -1.2771    4.9976    0.8271 H   0  0  0  0  0  0
   -3.3544    7.5096   -2.7099 H   0  0  0  0  0  0
   -4.0614    9.5977   -1.5470 H   0  0  0  0  0  0
   -2.8032    9.2509    2.8530 H   0  0  0  0  0  0
   -2.3427    7.4718    6.4339 H   0  0  0  0  0  0
   -2.7737    6.1192    5.3332 H   0  0  0  0  0  0
   -3.5791    7.7148    5.1537 H   0  0  0  0  0  0
   -2.3080    4.2804   -3.8456 H   0  0  0  0  0  0
   -0.7238    4.4821   -5.7249 H   0  0  0  0  0  0
    1.6432    7.2544   -3.4247 H   0  0  0  0  0  0
    0.0564    7.0486   -1.5487 H   0  0  0  0  0  0
    1.2951    5.4264   -6.6875 H   0  0  0  0  0  0
    5.3530    6.8848   -7.7837 H   0  0  0  0  0  0
    5.1504    6.3955   -6.0673 H   0  0  0  0  0  0
    3.2861    4.5063   -6.8260 H   0  0  0  0  0  0
    3.4888    4.9957   -8.5424 H   0  0  0  0  0  0
    3.3894   11.4158   -7.2442 H   0  0  0  0  0  0
    2.8341   13.3898   -8.6243 H   0  0  0  0  0  0
    1.4261   10.8158  -11.7625 H   0  0  0  0  0  0
    1.9762    8.8329  -10.3930 H   0  0  0  0  0  0
    2.0819    7.7526  -10.1005 H   0  0  0  0  0  0
  1  2  1  0  0  0
  1 38  1  0  0  0
  1 39  1  0  0  0
  1 40  1  0  0  0
  2  3  1  0  0  0
  3 12  2  0  0  0
  3  4  1  0  0  0
  4  5  2  0  0  0
  4 41  1  0  0  0
  5 10  1  0  0  0
  5  6  1  0  0  0
  6  7  2  0  0  0
  6 15  1  0  0  0
  7  8  1  0  0  0
  7 42  1  0  0  0
  8  9  2  0  0  0
  8 43  1  0  0  0
  9 10  1  0  0  0
 10 11  2  0  0  0
 11 12  1  0  0  0
 11 44  1  0  0  0
 12 13  1  0  0  0
 13 14  1  0  0  0
 14 45  1  0  0  0
 14 46  1  0  0  0
 14 47  1  0  0  0
 15 16  1  0  0  0
 16 21  2  0  0  0
 16 17  1  0  0  0
 17 18  2  0  0  0
 17 48  1  0  0  0
 18 19  1  0  0  0
 18 49  1  0  0  0
 19 20  2  0  0  0
 19 22  1  0  0  0
 20 21  1  0  0  0
 20 50  1  0  0  0
 21 51  1  0  0  0
 22 23  1  0  0  0
 22 52  1  0  0  0
 23 24  2  0  0  0
 23 25  1  0  0  0
 25 27  1  0  0  0
 25 26  1  0  0  0
 25 28  1  0  0  0
 26 27  1  0  0  0
 26 53  1  0  0  0
 26 54  1  0  0  0
 27 55  1  0  0  0
 27 56  1  0  0  0
 28 29  2  0  0  0
 28 30  1  0  0  0
 29 61  1  0  0  0
 30 31  1  0  0  0
 31 36  2  0  0  0
 31 32  1  0  0  0
 32 33  2  0  0  0
 32 57  1  0  0  0
 33 34  1  0  0  0
 33 58  1  0  0  0
 34 35  2  0  0  0
 34 37  1  0  0  0
 35 36  1  0  0  0
 35 59  1  0  0  0
 36 60  1  0  0  0
M  CHG  2  29   1  30  -1
M  END
> <s_m_source_file>
/Users/andrea/Development/mcce-charges/epik_inhibitors/output/Cabozantinib/Cabozantinib-input.mol2

> <i_m_source_file_index>
1

> <r_epik_Ionization_Penalty>
  0.5520

> <r_epik_Ionization_Penalty_Charging>
  0.0062

> <r_epik_Ionization_Penalty_Neutral>
  0.5458

> <r_epik_State_Penalty>
  7.0655

> <i_epik_Tot_Q>
0

$$$$
~{N}1-[4-[(6,7-dimethoxy-4-quinolyl)oxy]phenyl]-~{N}1'-(4-fluorophenyl)cyclopropane-1,1-dicarboxamide
                    3D
 Structure written by MMmdl.
 60 64  0  0  1  0            999 V2000
    0.6581    5.3258    3.4394 C   0  0  0  0  0  0
   -0.7597    5.2342    3.3634 O   0  0  0  0  0  0
   -1.3950    6.1738    2.6108 C   0  0  0  0  0  0
   -1.6183    5.9369    1.2575 C   0  0  0  0  0  0
   -2.2725    6.8963    0.4661 C   0  0  0  0  0  0
   -2.5102    6.6837   -0.8986 C   0  0  0  0  0  0
   -3.1587    7.6508   -1.6529 C   0  0  0  0  0  0
   -3.5497    8.8068   -1.0084 C   0  0  0  0  0  0
   -3.3398    9.0510    0.3055 N   0  0  0  0  0  0
   -2.7101    8.1107    1.0351 C   0  0  0  0  0  0
   -2.4739    8.3213    2.3908 C   0  0  0  0  0  0
   -1.8235    7.3676    3.1778 C   0  0  0  0  0  0
   -1.6160    7.6211    4.5002 O   0  0  0  0  0  0
   -2.6362    7.2081    5.4071 C   0  0  0  0  0  0
   -2.1171    5.5352   -1.5219 O   0  0  0  0  0  0
   -1.2282    5.6507   -2.5753 C   0  0  0  0  0  0
   -1.4434    4.9317   -3.7511 C   0  0  0  0  0  0
   -0.5469    5.0476   -4.8135 C   0  0  0  0  0  0
    0.5647    5.8825   -4.7001 C   0  0  0  0  0  0
    0.7799    6.6014   -3.5242 C   0  0  0  0  0  0
   -0.1165    6.4855   -2.4619 C   0  0  0  0  0  0
    1.4633    5.9956   -5.7613 N   0  0  0  0  0  0
    2.6251    6.7759   -5.8319 C   0  0  0  0  0  0
    3.0814    7.5142   -4.9648 O   0  5  0  0  0  0
    3.3240    6.6194   -7.1590 C   0  0  0  0  0  0
    4.7807    6.2483   -7.0928 C   0  0  0  0  0  0
    3.7704    5.2245   -7.5040 C   0  0  0  0  0  0
    2.8750    7.4975   -8.2429 C   0  0  0  0  0  0
    2.4068    7.0560   -9.3136 O   0  0  0  0  0  0
    3.0350    8.8601   -7.9398 N   0  0  0  0  0  0
    2.7194    9.9927   -8.7271 C   0  0  0  0  0  0
    2.9595   11.2748   -8.2326 C   0  0  0  0  0  0
    2.6478   12.3912   -9.0085 C   0  0  0  0  0  0
    2.0960   12.2257  -10.2789 C   0  0  0  0  0  0
    1.8559   10.9437  -10.7733 C   0  0  0  0  0  0
    2.1676    9.8272   -9.9974 C   0  0  0  0  0  0
    1.7941   13.2978  -11.0228 F   0  0  0  0  0  0
    1.0445    4.5140    4.0732 H   0  0  0  0  0  0
    0.9400    6.2962    3.8740 H   0  0  0  0  0  0
    1.0858    5.2380    2.4298 H   0  0  0  0  0  0
   -1.2771    4.9976    0.8271 H   0  0  0  0  0  0
   -3.3544    7.5096   -2.7099 H   0  0  0  0  0  0
   -4.0614    9.5977   -1.5470 H   0  0  0  0  0  0
   -2.8032    9.2509    2.8530 H   0  0  0  0  0  0
   -2.3427    7.4718    6.4339 H   0  0  0  0  0  0
   -2.7737    6.1192    5.3332 H   0  0  0  0  0  0
   -3.5791    7.7148    5.1537 H   0  0  0  0  0  0
   -2.3080    4.2804   -3.8456 H   0  0  0  0  0  0
   -0.7238    4.4821   -5.7249 H   0  0  0  0  0  0
    1.6432    7.2544   -3.4247 H   0  0  0  0  0  0
    0.0564    7.0486   -1.5487 H   0  0  0  0  0  0
    5.3530    6.8848   -7.7837 H   0  0  0  0  0  0
    5.1504    6.3955   -6.0673 H   0  0  0  0  0  0
    3.2861    4.5063   -6.8260 H   0  0  0  0  0  0
    3.4888    4.9957   -8.5424 H   0  0  0  0  0  0
    3.4597    9.1619   -6.9710 H   0  0  0  0  0  0
    3.3894   11.4158   -7.2442 H   0  0  0  0  0  0
    2.8341   13.3898   -8.6243 H   0  0  0  0  0  0
    1.4261   10.8158  -11.7625 H   0  0  0  0  0  0
    1.9762    8.8329  -10.3930 H   0  0  0  0  0  0
  1  2  1  0  0  0
  1 38  1  0  0  0
  1 39  1  0  0  0
  1 40  1  0  0  0
  2  3  1  0  0  0
  3 12  2  0  0  0
  3  4  1  0  0  0
  4  5  2  0  0  0
  4 41  1  0  0  0
  5 10  1  0  0  0
  5  6  1  0  0  0
  6  7  2  0  0  0
  6 15  1  0  0  0
  7  8  1  0  0  0
  7 42  1  0  0  0
  8  9  2  0  0  0
  8 43  1  0  0  0
  9 10  1  0  0  0
 10 11  2  0  0  0
 11 12  1  0  0  0
 11 44  1  0  0  0
 12 13  1  0  0  0
 13 14  1  0  0  0
 14 45  1  0  0  0
 14 46  1  0  0  0
 14 47  1  0  0  0
 15 16  1  0  0  0
 16 21  2  0  0  0
 16 17  1  0  0  0
 17 18  2  0  0  0
 17 48  1  0  0  0
 18 19  1  0  0  0
 18 49  1  0  0  0
 19 20  2  0  0  0
 19 22  1  0  0  0
 20 21  1  0  0  0
 20 50  1  0  0  0
 21 51  1  0  0  0
 22 23  2  0  0  0
 23 24  1  0  0  0
 23 25  1  0  0  0
 25 27  1  0  0  0
 25 26  1  0  0  0
 25 28  1  0  0  0
 26 27  1  0  0  0
 26 52  1  0  0  0
 26 53  1  0  0  0
 27 54  1  0  0  0
 27 55  1  0  0  0
 28 29  2  0  0  0
 28 30  1  0  0  0
 30 31  1  0  0  0
 30 56  1  0  0  0
 31 36  2  0  0  0
 31 32  1  0  0  0
 32 33  2  0  0  0
 32 57  1  0  0  0
 33 34  1  0  0  0
 33 58  1  0  0  0
 34 35  2  0  0  0
 34 37  1  0  0  0
 35 36  1  0  0  0
 35 59  1  0  0  0
 36 60  1  0  0  0
M  CHG  1  24  -1
M  END
> <s_m_source_file>
/Users/andrea/Development/mcce-charges/epik_inhibitors/output/Cabozantinib/Cabozantinib-input.mol2

> <i_m_source_file_index>
1

> <r_epik_Ionization_Penalty>
  6.7574

> <r_epik_Ionization_Penalty_Charging>
  6.2116

> <r_epik_Ionization_Penalty_Neutral>
  0.5458

> <r_epik_State_Penalty>
  7.1612

> <i_epik_Tot_Q>
-1

$$$$
~{N}1-[4-[(6,7-dimethoxy-4-quinolyl)oxy]phenyl]-~{N}1'-(4-fluorophenyl)cyclopropane-1,1-dicarboxamide
                    3D
 Structure written by MMmdl.
 60 64  0  0  1  0            999 V2000
    0.6581    5.3258    3.4394 C   0  0  0  0  0  0
   -0.7597    5.2342    3.3634 O   0  0  0  0  0  0
   -1.3950    6.1738    2.6108 C   0  0  0  0  0  0
   -1.6183    5.9369    1.2575 C   0  0  0  0  0  0
   -2.2725    6.8963    0.4661 C   0  0  0  0  0  0
   -2.5102    6.6837   -0.8986 C   0  0  0  0  0  0
   -3.1587    7.6508   -1.6529 C   0  0  0  0  0  0
   -3.5497    8.8068   -1.0084 C   0  0  0  0  0  0
   -3.3398    9.0510    0.3055 N   0  0  0  0  0  0
   -2.7101    8.1107    1.0351 C   0  0  0  0  0  0
   -2.4739    8.3213    2.3908 C   0  0  0  0  0  0
   -1.8235    7.3676    3.1778 C   0  0  0  0  0  0
   -1.6160    7.6211    4.5002 O   0  0  0  0  0  0
   -2.6362    7.2081    5.4071 C   0  0  0  0  0  0
   -2.1171    5.5352   -1.5219 O   0  0  0  0  0  0
   -1.2282    5.6507   -2.5753 C   0  0  0  0  0  0
   -1.4434    4.9317   -3.7511 C   0  0  0  0  0  0
   -0.5469    5.0476   -4.8135 C   0  0  0  0  0  0
    0.5647    5.8825   -4.7001 C   0  0  0  0  0  0
    0.7799    6.6014   -3.5242 C   0  0  0  0  0  0
   -0.1165    6.4855   -2.4619 C   0  0  0  0  0  0
    1.4633    5.9956   -5.7613 N   0  0  0  0  0  0
    2.6251    6.7759   -5.8319 C   0  0  0  0  0  0
    3.0814    7.5142   -4.9648 O   0  0  0  0  0  0
    3.3240    6.6194   -7.1590 C   0  0  0  0  0  0
    4.7807    6.2483   -7.0928 C   0  0  0  0  0  0
    3.7704    5.2245   -7.5040 C   0  0  0  0  0  0
    2.8750    7.4975   -8.2429 C   0  0  0  0  0  0
    2.4068    7.0560   -9.3136 O   0  5  0  0  0  0
    3.0350    8.8601   -7.9398 N   0  0  0  0  0  0
    2.7194    9.9927   -8.7271 C   0  0  0  0  0  0
    2.9595   11.2748   -8.2326 C   0  0  0  0  0  0
    2.6478   12.3912   -9.0085 C   0  0  0  0  0  0
    2.0960   12.2257  -10.2789 C   0  0  0  0  0  0
    1.8559   10.9437  -10.7733 C   0  0  0  0  0  0
    2.1676    9.8272   -9.9974 C   0  0  0  0  0  0
    1.7941   13.2978  -11.0228 F   0  0  0  0  0  0
    1.0445    4.5140    4.0732 H   0  0  0  0  0  0
    0.9400    6.2962    3.8740 H   0  0  0  0  0  0
    1.0858    5.2380    2.4298 H   0  0  0  0  0  0
   -1.2771    4.9976    0.8271 H   0  0  0  0  0  0
   -3.3544    7.5096   -2.7099 H   0  0  0  0  0  0
   -4.0614    9.5977   -1.5470 H   0  0  0  0  0  0
   -2.8032    9.2509    2.8530 H   0  0  0  0  0  0
   -2.3427    7.4718    6.4339 H   0  0  0  0  0  0
   -2.7737    6.1192    5.3332 H   0  0  0  0  0  0
   -3.5791    7.7148    5.1537 H   0  0  0  0  0  0
   -2.2408    4.3337   -3.8327 H   0  0  0  0  0  0
   -0.7008    4.5316   -5.6561 H   0  0  0  0  0  0
    1.5772    7.1995   -3.4426 H   0  0  0  0  0  0
    0.0376    7.0013   -1.6192 H   0  0  0  0  0  0
    1.2951    5.4264   -6.6875 H   0  0  0  0  0  0
    5.3530    6.8848   -7.7837 H   0  0  0  0  0  0
    5.1504    6.3955   -6.0673 H   0  0  0  0  0  0
    3.2861    4.5063   -6.8260 H   0  0  0  0  0  0
    3.4888    4.9957   -8.5424 H   0  0  0  0  0  0
    3.3894   11.4158   -7.2442 H   0  0  0  0  0  0
    2.8341   13.3898   -8.6243 H   0  0  0  0  0  0
    1.4261   10.8158  -11.7625 H   0  0  0  0  0  0
    1.9762    8.8329  -10.3930 H   0  0  0  0  0  0
  1  2  1  0  0  0
  1 38  1  0  0  0
  1 39  1  0  0  0
  1 40  1  0  0  0
  2  3  1  0  0  0
  3 12  2  0  0  0
  3  4  1  0  0  0
  4  5  2  0  0  0
  4 41  1  0  0  0
  5 10  1  0  0  0
  5  6  1  0  0  0
  6  7  2  0  0  0
  6 15  1  0  0  0
  7  8  1  0  0  0
  7 42  1  0  0  0
  8  9  2  0  0  0
  8 43  1  0  0  0
  9 10  1  0  0  0
 10 11  2  0  0  0
 11 12  1  0  0  0
 11 44  1  0  0  0
 12 13  1  0  0  0
 13 14  1  0  0  0
 14 45  1  0  0  0
 14 46  1  0  0  0
 14 47  1  0  0  0
 15 16  1  0  0  0
 16 21  2  0  0  0
 16 17  1  0  0  0
 17 18  2  0  0  0
 17 48  1  0  0  0
 18 19  1  0  0  0
 18 49  1  0  0  0
 19 20  2  0  0  0
 19 22  1  0  0  0
 20 21  1  0  0  0
 20 50  1  0  0  0
 21 51  1  0  0  0
 22 23  1  0  0  0
 22 52  1  0  0  0
 23 24  2  0  0  0
 23 25  1  0  0  0
 25 27  1  0  0  0
 25 26  1  0  0  0
 25 28  1  0  0  0
 26 27  1  0  0  0
 26 53  1  0  0  0
 26 54  1  0  0  0
 27 55  1  0  0  0
 27 56  1  0  0  0
 28 29  1  0  0  0
 28 30  2  0  0  0
 30 31  1  0  0  0
 31 36  2  0  0  0
 31 32  1  0  0  0
 32 33  2  0  0  0
 32 57  1  0  0  0
 33 34  1  0  0  0
 33 58  1  0  0  0
 34 35  2  0  0  0
 34 37  1  0  0  0
 35 36  1  0  0  0
 35 59  1  0  0  0
 36 60  1  0  0  0
M  CHG  1  29  -1
M  END
> <s_m_source_file>
/Users/andrea/Development/mcce-charges/epik_inhibitors/output/Cabozantinib/Cabozantinib-input.mol2

> <i_m_source_file_index>
1

> <r_epik_Ionization_Penalty>
  6.8108

> <r_epik_Ionization_Penalty_Charging>
  6.2650

> <r_epik_Ionization_Penalty_Neutral>
  0.5458

> <r_epik_State_Penalty>
  7.2356

> <i_epik_Tot_Q>
-1

$$$$
~{N}1-[4-[(6,7-dimethoxy-4-quinolyl)oxy]phenyl]-~{N}1'-(4-fluorophenyl)cyclopropane-1,1-dicarboxamide
                    3D
 Structure written by MMmdl.
 63 67  0  0  1  0            999 V2000
    0.6581    5.3258    3.4394 C   0  0  0  0  0  0
   -0.7597    5.2342    3.3634 O   0  0  0  0  0  0
   -1.3950    6.1738    2.6108 C   0  0  0  0  0  0
   -1.6183    5.9369    1.2575 C   0  0  0  0  0  0
   -2.2725    6.8963    0.4661 C   0  0  0  0  0  0
   -2.5102    6.6837   -0.8986 C   0  0  0  0  0  0
   -3.1587    7.6508   -1.6529 C   0  0  0  0  0  0
   -3.5497    8.8068   -1.0084 C   0  0  0  0  0  0
   -3.3398    9.0510    0.3055 N   0  3  0  0  0  0
   -2.7101    8.1107    1.0351 C   0  0  0  0  0  0
   -2.4739    8.3213    2.3908 C   0  0  0  0  0  0
   -1.8235    7.3676    3.1778 C   0  0  0  0  0  0
   -1.6160    7.6211    4.5002 O   0  0  0  0  0  0
   -2.6362    7.2081    5.4071 C   0  0  0  0  0  0
   -2.1171    5.5352   -1.5219 O   0  0  0  0  0  0
   -1.2282    5.6507   -2.5753 C   0  0  0  0  0  0
   -1.4434    4.9317   -3.7511 C   0  0  0  0  0  0
   -0.5469    5.0476   -4.8135 C   0  0  0  0  0  0
    0.5647    5.8825   -4.7001 C   0  0  0  0  0  0
    0.7799    6.6014   -3.5242 C   0  0  0  0  0  0
   -0.1165    6.4855   -2.4619 C   0  0  0  0  0  0
    1.4633    5.9956   -5.7613 N   0  0  0  0  0  0
    2.6251    6.7759   -5.8319 C   0  0  0  0  0  0
    3.0814    7.5142   -4.9648 O   0  3  0  0  0  0
    3.3240    6.6194   -7.1590 C   0  0  0  0  0  0
    4.7807    6.2483   -7.0928 C   0  0  0  0  0  0
    3.7704    5.2245   -7.5040 C   0  0  0  0  0  0
    2.8750    7.4975   -8.2429 C   0  0  0  0  0  0
    2.4068    7.0560   -9.3136 O   0  0  0  0  0  0
    3.0350    8.8601   -7.9398 N   0  0  0  0  0  0
    2.7194    9.9927   -8.7271 C   0  0  0  0  0  0
    2.9595   11.2748   -8.2326 C   0  0  0  0  0  0
    2.6478   12.3912   -9.0085 C   0  0  0  0  0  0
    2.0960   12.2257  -10.2789 C   0  0  0  0  0  0
    1.8559   10.9437  -10.7733 C   0  0  0  0  0  0
    2.1676    9.8272   -9.9974 C   0  0  0  0  0  0
    1.7941   13.2978  -11.0228 F   0  0  0  0  0  0
    1.0445    4.5140    4.0732 H   0  0  0  0  0  0
    0.9400    6.2962    3.8740 H   0  0  0  0  0  0
    1.0858    5.2380    2.4298 H   0  0  0  0  0  0
   -1.2771    4.9976    0.8271 H   0  0  0  0  0  0
   -3.3544    7.5096   -2.7099 H   0  0  0  0  0  0
   -4.0614    9.5977   -1.5470 H   0  0  0  0  0  0
   -2.8032    9.2509    2.8530 H   0  0  0  0  0  0
   -2.3427    7.4718    6.4339 H   0  0  0  0  0  0
   -2.7737    6.1192    5.3332 H   0  0  0  0  0  0
   -3.5791    7.7148    5.1537 H   0  0  0  0  0  0
   -2.3080    4.2804   -3.8456 H   0  0  0  0  0  0
   -0.7238    4.4821   -5.7249 H   0  0  0  0  0  0
    1.6432    7.2544   -3.4247 H   0  0  0  0  0  0
    0.0564    7.0486   -1.5487 H   0  0  0  0  0  0
    1.2951    5.4264   -6.6875 H   0  0  0  0  0  0
    5.3530    6.8848   -7.7837 H   0  0  0  0  0  0
    5.1504    6.3955   -6.0673 H   0  0  0  0  0  0
    3.2861    4.5063   -6.8260 H   0  0  0  0  0  0
    3.4888    4.9957   -8.5424 H   0  0  0  0  0  0
    3.4597    9.1619   -6.9710 H   0  0  0  0  0  0
    3.3894   11.4158   -7.2442 H   0  0  0  0  0  0
    2.8341   13.3898   -8.6243 H   0  0  0  0  0  0
    1.4261   10.8158  -11.7625 H   0  0  0  0  0  0
    1.9762    8.8329  -10.3930 H   0  0  0  0  0  0
   -3.6807    9.9975    0.7503 H   0  0  0  0  0  0
    4.0094    8.0744   -5.1519 H   0  0  0  0  0  0
  1  2  1  0  0  0
  1 38  1  0  0  0
  1 39  1  0  0  0
  1 40  1  0  0  0
  2  3  1  0  0  0
  3 12  2  0  0  0
  3  4  1  0  0  0
  4  5  2  0  0  0
  4 41  1  0  0  0
  5 10  1  0  0  0
  5  6  1  0  0  0
  6  7  2  0  0  0
  6 15  1  0  0  0
  7  8  1  0  0  0
  7 42  1  0  0  0
  8  9  2  0  0  0
  8 43  1  0  0  0
  9 10  1  0  0  0
  9 62  1  0  0  0
 10 11  2  0  0  0
 11 12  1  0  0  0
 11 44  1  0  0  0
 12 13  1  0  0  0
 13 14  1  0  0  0
 14 45  1  0  0  0
 14 46  1  0  0  0
 14 47  1  0  0  0
 15 16  1  0  0  0
 16 21  2  0  0  0
 16 17  1  0  0  0
 17 18  2  0  0  0
 17 48  1  0  0  0
 18 19  1  0  0  0
 18 49  1  0  0  0
 19 20  2  0  0  0
 19 22  1  0  0  0
 20 21  1  0  0  0
 20 50  1  0  0  0
 21 51  1  0  0  0
 22 23  1  0  0  0
 22 52  1  0  0  0
 23 24  2  0  0  0
 23 25  1  0  0  0
 24 63  1  0  0  0
 25 27  1  0  0  0
 25 26  1  0  0  0
 25 28  1  0  0  0
 26 27  1  0  0  0
 26 53  1  0  0  0
 26 54  1  0  0  0
 27 55  1  0  0  0
 27 56  1  0  0  0
 28 29  2  0  0  0
 28 30  1  0  0  0
 30 31  1  0  0  0
 30 57  1  0  0  0
 31 36  2  0  0  0
 31 32  1  0  0  0
 32 33  2  0  0  0
 32 58  1  0  0  0
 33 34  1  0  0  0
 33 59  1  0  0  0
 34 35  2  0  0  0
 34 37  1  0  0  0
 35 36  1  0  0  0
 35 60  1  0  0  0
 36 61  1  0  0  0
M  CHG  2   9   1  24   1
M  END
> <s_m_source_file>
/Users/andrea/Development/mcce-charges/epik_inhibitors/output/Cabozantinib/Cabozantinib-input.mol2

> <i_m_source_file_index>
1

> <r_epik_Ionization_Penalty>
 11.6516

> <r_epik_Ionization_Penalty_Charging>
  8.9446

> <r_epik_Ionization_Penalty_Neutral>
  2.7069

> <r_epik_State_Penalty>
 12.5183

> <i_epik_Tot_Q>
2

$$$$
~{N}1-[4-[(6,7-dimethoxy-4-quinolyl)oxy]phenyl]-~{N}1'-(4-fluorophenyl)cyclopropane-1,1-dicarboxamide
                    3D
 Structure written by MMmdl.
 63 67  0  0  1  0            999 V2000
    0.6581    5.3258    3.4394 C   0  0  0  0  0  0
   -0.7597    5.2342    3.3634 O   0  0  0  0  0  0
   -1.3950    6.1738    2.6108 C   0  0  0  0  0  0
   -1.6183    5.9369    1.2575 C   0  0  0  0  0  0
   -2.2725    6.8963    0.4661 C   0  0  0  0  0  0
   -2.5102    6.6837   -0.8986 C   0  0  0  0  0  0
   -3.1587    7.6508   -1.6529 C   0  0  0  0  0  0
   -3.5497    8.8068   -1.0084 C   0  0  0  0  0  0
   -3.3398    9.0510    0.3055 N   0  3  0  0  0  0
   -2.7101    8.1107    1.0351 C   0  0  0  0  0  0
   -2.4739    8.3213    2.3908 C   0  0  0  0  0  0
   -1.8235    7.3676    3.1778 C   0  0  0  0  0  0
   -1.6160    7.6211    4.5002 O   0  0  0  0  0  0
   -2.6362    7.2081    5.4071 C   0  0  0  0  0  0
   -2.1171    5.5352   -1.5219 O   0  0  0  0  0  0
   -1.2282    5.6507   -2.5753 C   0  0  0  0  0  0
   -1.4434    4.9317   -3.7511 C   0  0  0  0  0  0
   -0.5469    5.0476   -4.8135 C   0  0  0  0  0  0
    0.5647    5.8825   -4.7001 C   0  0  0  0  0  0
    0.7799    6.6014   -3.5242 C   0  0  0  0  0  0
   -0.1165    6.4855   -2.4619 C   0  0  0  0  0  0
    1.4633    5.9956   -5.7613 N   0  0  0  0  0  0
    2.6251    6.7759   -5.8319 C   0  0  0  0  0  0
    3.0814    7.5142   -4.9648 O   0  0  0  0  0  0
    3.3240    6.6194   -7.1590 C   0  0  0  0  0  0
    4.7807    6.2483   -7.0928 C   0  0  0  0  0  0
    3.7704    5.2245   -7.5040 C   0  0  0  0  0  0
    2.8750    7.4975   -8.2429 C   0  0  0  0  0  0
    2.4068    7.0560   -9.3136 O   0  3  0  0  0  0
    3.0350    8.8601   -7.9398 N   0  0  0  0  0  0
    2.7194    9.9927   -8.7271 C   0  0  0  0  0  0
    2.9595   11.2748   -8.2326 C   0  0  0  0  0  0
    2.6478   12.3912   -9.0085 C   0  0  0  0  0  0
    2.0960   12.2257  -10.2789 C   0  0  0  0  0  0
    1.8559   10.9437  -10.7733 C   0  0  0  0  0  0
    2.1676    9.8272   -9.9974 C   0  0  0  0  0  0
    1.7941   13.2978  -11.0228 F   0  0  0  0  0  0
    1.0445    4.5140    4.0732 H   0  0  0  0  0  0
    0.9400    6.2962    3.8740 H   0  0  0  0  0  0
    1.0858    5.2380    2.4298 H   0  0  0  0  0  0
   -1.2771    4.9976    0.8271 H   0  0  0  0  0  0
   -3.3544    7.5096   -2.7099 H   0  0  0  0  0  0
   -4.0614    9.5977   -1.5470 H   0  0  0  0  0  0
   -2.8032    9.2509    2.8530 H   0  0  0  0  0  0
   -2.3427    7.4718    6.4339 H   0  0  0  0  0  0
   -2.7737    6.1192    5.3332 H   0  0  0  0  0  0
   -3.5791    7.7148    5.1537 H   0  0  0  0  0  0
   -2.3080    4.2804   -3.8456 H   0  0  0  0  0  0
   -0.7238    4.4821   -5.7249 H   0  0  0  0  0  0
    1.6432    7.2544   -3.4247 H   0  0  0  0  0  0
    0.0564    7.0486   -1.5487 H   0  0  0  0  0  0
    1.2951    5.4264   -6.6875 H   0  0  0  0  0  0
    5.3530    6.8848   -7.7837 H   0  0  0  0  0  0
    5.1504    6.3955   -6.0673 H   0  0  0  0  0  0
    3.2861    4.5063   -6.8260 H   0  0  0  0  0  0
    3.4888    4.9957   -8.5424 H   0  0  0  0  0  0
    3.4597    9.1619   -6.9710 H   0  0  0  0  0  0
    3.3894   11.4158   -7.2442 H   0  0  0  0  0  0
    2.8341   13.3898   -8.6243 H   0  0  0  0  0  0
    1.4261   10.8158  -11.7625 H   0  0  0  0  0  0
    1.9762    8.8329  -10.3930 H   0  0  0  0  0  0
   -3.6807    9.9975    0.7503 H   0  0  0  0  0  0
    2.0819    7.7526  -10.1005 H   0  0  0  0  0  0
  1  2  1  0  0  0
  1 38  1  0  0  0
  1 39  1  0  0  0
  1 40  1  0  0  0
  2  3  1  0  0  0
  3 12  2  0  0  0
  3  4  1  0  0  0
  4  5  2  0  0  0
  4 41  1  0  0  0
  5 10  1  0  0  0
  5  6  1  0  0  0
  6  7  2  0  0  0
  6 15  1  0  0  0
  7  8  1  0  0  0
  7 42  1  0  0  0
  8  9  2  0  0  0
  8 43  1  0  0  0
  9 10  1  0  0  0
  9 62  1  0  0  0
 10 11  2  0  0  0
 11 12  1  0  0  0
 11 44  1  0  0  0
 12 13  1  0  0  0
 13 14  1  0  0  0
 14 45  1  0  0  0
 14 46  1  0  0  0
 14 47  1  0  0  0
 15 16  1  0  0  0
 16 21  2  0  0  0
 16 17  1  0  0  0
 17 18  2  0  0  0
 17 48  1  0  0  0
 18 19  1  0  0  0
 18 49  1  0  0  0
 19 20  2  0  0  0
 19 22  1  0  0  0
 20 21  1  0  0  0
 20 50  1  0  0  0
 21 51  1  0  0  0
 22 23  1  0  0  0
 22 52  1  0  0  0
 23 24  2  0  0  0
 23 25  1  0  0  0
 25 27  1  0  0  0
 25 26  1  0  0  0
 25 28  1  0  0  0
 26 27  1  0  0  0
 26 53  1  0  0  0
 26 54  1  0  0  0
 27 55  1  0  0  0
 27 56  1  0  0  0
 28 29  2  0  0  0
 28 30  1  0  0  0
 29 63  1  0  0  0
 30 31  1  0  0  0
 30 57  1  0  0  0
 31 36  2  0  0  0
 31 32  1  0  0  0
 32 33  2  0  0  0
 32 58  1  0  0  0
 33 34  1  0  0  0
 33 59  1  0  0  0
 34 35  2  0  0  0
 34 37  1  0  0  0
 35 36  1  0  0  0
 35 60  1  0  0  0
 36 61  1  0  0  0
M  CHG  2   9   1  29   1
M  END
> <s_m_source_file>
/Users/andrea/Development/mcce-charges/epik_inhibitors/output/Cabozantinib/Cabozantinib-input.mol2

> <i_m_source_file_index>
1

> <r_epik_Ionization_Penalty>
 11.8153

> <r_epik_Ionization_Penalty_Charging>
  9.1083

> <r_epik_Ionization_Penalty_Neutral>
  2.7069

> <r_epik_State_Penalty>
 12.6943

> <i_epik_Tot_Q>
2

$$$$
~{N}1-[4-[(6,7-dimethoxy-4-quinolyl)oxy]phenyl]-~{N}1'-(4-fluorophenyl)cyclopropane-1,1-dicarboxamide
                    3D
 Structure written by MMmdl.
 62 66  0  0  1  0            999 V2000
    0.6581    5.3258    3.4394 C   0  0  0  0  0  0
   -0.7597    5.2342    3.3634 O   0  0  0  0  0  0
   -1.3950    6.1738    2.6108 C   0  0  0  0  0  0
   -1.6183    5.9369    1.2575 C   0  0  0  0  0  0
   -2.2725    6.8963    0.4661 C   0  0  0  0  0  0
   -2.5102    6.6837   -0.8986 C   0  0  0  0  0  0
   -3.1587    7.6508   -1.6529 C   0  0  0  0  0  0
   -3.5497    8.8068   -1.0084 C   0  0  0  0  0  0
   -3.3398    9.0510    0.3055 N   0  0  0  0  0  0
   -2.7101    8.1107    1.0351 C   0  0  0  0  0  0
   -2.4739    8.3213    2.3908 C   0  0  0  0  0  0
   -1.8235    7.3676    3.1778 C   0  0  0  0  0  0
   -1.6160    7.6211    4.5002 O   0  0  0  0  0  0
   -2.6362    7.2081    5.4071 C   0  0  0  0  0  0
   -2.1171    5.5352   -1.5219 O   0  0  0  0  0  0
   -1.2282    5.6507   -2.5753 C   0  0  0  0  0  0
   -1.4434    4.9317   -3.7511 C   0  0  0  0  0  0
   -0.5469    5.0476   -4.8135 C   0  0  0  0  0  0
    0.5647    5.8825   -4.7001 C   0  0  0  0  0  0
    0.7799    6.6014   -3.5242 C   0  0  0  0  0  0
   -0.1165    6.4855   -2.4619 C   0  0  0  0  0  0
    1.4633    5.9956   -5.7613 N   0  0  0  0  0  0
    2.6251    6.7759   -5.8319 C   0  0  0  0  0  0
    3.0814    7.5142   -4.9648 O   0  3  0  0  0  0
    3.3240    6.6194   -7.1590 C   0  0  0  0  0  0
    4.7807    6.2483   -7.0928 C   0  0  0  0  0  0
    3.7704    5.2245   -7.5040 C   0  0  0  0  0  0
    2.8750    7.4975   -8.2429 C   0  0  0  0  0  0
    2.4068    7.0560   -9.3136 O   0  0  0  0  0  0
    3.0350    8.8601   -7.9398 N   0  0  0  0  0  0
    2.7194    9.9927   -8.7271 C   0  0  0  0  0  0
    2.9595   11.2748   -8.2326 C   0  0  0  0  0  0
    2.6478   12.3912   -9.0085 C   0  0  0  0  0  0
    2.0960   12.2257  -10.2789 C   0  0  0  0  0  0
    1.8559   10.9437  -10.7733 C   0  0  0  0  0  0
    2.1676    9.8272   -9.9974 C   0  0  0  0  0  0
    1.7941   13.2978  -11.0228 F   0  0  0  0  0  0
    1.0445    4.5140    4.0732 H   0  0  0  0  0  0
    0.9400    6.2962    3.8740 H   0  0  0  0  0  0
    1.0858    5.2380    2.4298 H   0  0  0  0  0  0
   -1.2771    4.9976    0.8271 H   0  0  0  0  0  0
   -3.3544    7.5096   -2.7099 H   0  0  0  0  0  0
   -4.0614    9.5977   -1.5470 H   0  0  0  0  0  0
   -2.8032    9.2509    2.8530 H   0  0  0  0  0  0
   -2.3427    7.4718    6.4339 H   0  0  0  0  0  0
   -2.7737    6.1192    5.3332 H   0  0  0  0  0  0
   -3.5791    7.7148    5.1537 H   0  0  0  0  0  0
   -2.3080    4.2804   -3.8456 H   0  0  0  0  0  0
   -0.7238    4.4821   -5.7249 H   0  0  0  0  0  0
    1.6432    7.2544   -3.4247 H   0  0  0  0  0  0
    0.0564    7.0486   -1.5487 H   0  0  0  0  0  0
    1.2951    5.4264   -6.6875 H   0  0  0  0  0  0
    5.3530    6.8848   -7.7837 H   0  0  0  0  0  0
    5.1504    6.3955   -6.0673 H   0  0  0  0  0  0
    3.2861    4.5063   -6.8260 H   0  0  0  0  0  0
    3.4888    4.9957   -8.5424 H   0  0  0  0  0  0
    3.4597    9.1619   -6.9710 H   0  0  0  0  0  0
    3.3894   11.4158   -7.2442 H   0  0  0  0  0  0
    2.8341   13.3898   -8.6243 H   0  0  0  0  0  0
    1.4261   10.8158  -11.7625 H   0  0  0  0  0  0
    1.9762    8.8329  -10.3930 H   0  0  0  0  0  0
    4.0094    8.0744   -5.1519 H   0  0  0  0  0  0
  1  2  1  0  0  0
  1 38  1  0  0  0
  1 39  1  0  0  0
  1 40  1  0  0  0
  2  3  1  0  0  0
  3 12  2  0  0  0
  3  4  1  0  0  0
  4  5  2  0  0  0
  4 41  1  0  0  0
  5 10  1  0  0  0
  5  6  1  0  0  0
  6  7  2  0  0  0
  6 15  1  0  0  0
  7  8  1  0  0  0
  7 42  1  0  0  0
  8  9  2  0  0  0
  8 43  1  0  0  0
  9 10  1  0  0  0
 10 11  2  0  0  0
 11 12  1  0  0  0
 11 44  1  0  0  0
 12 13  1  0  0  0
 13 14  1  0  0  0
 14 45  1  0  0  0
 14 46  1  0  0  0
 14 47  1  0  0  0
 15 16  1  0  0  0
 16 21  2  0  0  0
 16 17  1  0  0  0
 17 18  2  0  0  0
 17 48  1  0  0  0
 18 19  1  0  0  0
 18 49  1  0  0  0
 19 20  2  0  0  0
 19 22  1  0  0  0
 20 21  1  0  0  0
 20 50  1  0  0  0
 21 51  1  0  0  0
 22 23  1  0  0  0
 22 52  1  0  0  0
 23 24  2  0  0  0
 23 25  1  0  0  0
 24 62  1  0  0  0
 25 27  1  0  0  0
 25 26  1  0  0  0
 25 28  1  0  0  0
 26 27  1  0  0  0
 26 53  1  0  0  0
 26 54  1  0  0  0
 27 55  1  0  0  0
 27 56  1  0  0  0
 28 29  2  0  0  0
 28 30  1  0  0  0
 30 31  1  0  0  0
 30 57  1  0  0  0
 31 36  2  0  0  0
 31 32  1  0  0  0
 32 33  2  0  0  0
 32 58  1  0  0  0
 33 34  1  0  0  0
 33 59  1  0  0  0
 34 35  2  0  0  0
 34 37  1  0  0  0
 35 36  1  0  0  0
 35 60  1  0  0  0
 36 61  1  0  0  0
M  CHG  1  24   1
M  END
> <s_m_source_file>
/Users/andrea/Development/mcce-charges/epik_inhibitors/output/Cabozantinib/Cabozantinib-input.mol2

> <i_m_source_file_index>
1

> <r_epik_Ionization_Penalty>
 11.8966

> <r_epik_Ionization_Penalty_Charging>
  8.6439

> <r_epik_Ionization_Penalty_Neutral>
  3.2527

> <r_epik_State_Penalty>
 12.7771

> <i_epik_Tot_Q>
1

$$$$
~{N}1-[4-[(6,7-dimethoxy-4-quinolyl)oxy]phenyl]-~{N}1'-(4-fluorophenyl)cyclopropane-1,1-dicarboxamide
                    3D
 Structure written by MMmdl.
 62 66  0  0  1  0            999 V2000
    0.6581    5.3258    3.4394 C   0  0  0  0  0  0
   -0.7597    5.2342    3.3634 O   0  0  0  0  0  0
   -1.3950    6.1738    2.6108 C   0  0  0  0  0  0
   -1.6183    5.9369    1.2575 C   0  0  0  0  0  0
   -2.2725    6.8963    0.4661 C   0  0  0  0  0  0
   -2.5102    6.6837   -0.8986 C   0  0  0  0  0  0
   -3.1587    7.6508   -1.6529 C   0  0  0  0  0  0
   -3.5497    8.8068   -1.0084 C   0  0  0  0  0  0
   -3.3398    9.0510    0.3055 N   0  3  0  0  0  0
   -2.7101    8.1107    1.0351 C   0  0  0  0  0  0
   -2.4739    8.3213    2.3908 C   0  0  0  0  0  0
   -1.8235    7.3676    3.1778 C   0  0  0  0  0  0
   -1.6160    7.6211    4.5002 O   0  0  0  0  0  0
   -2.6362    7.2081    5.4071 C   0  0  0  0  0  0
   -2.1171    5.5352   -1.5219 O   0  0  0  0  0  0
   -1.2282    5.6507   -2.5753 C   0  0  0  0  0  0
   -1.4434    4.9317   -3.7511 C   0  0  0  0  0  0
   -0.5469    5.0476   -4.8135 C   0  0  0  0  0  0
    0.5647    5.8825   -4.7001 C   0  0  0  0  0  0
    0.7799    6.6014   -3.5242 C   0  0  0  0  0  0
   -0.1165    6.4855   -2.4619 C   0  0  0  0  0  0
    1.4633    5.9956   -5.7613 N   0  5  0  0  0  0
    2.6251    6.7759   -5.8319 C   0  0  0  0  0  0
    3.0814    7.5142   -4.9648 O   0  3  0  0  0  0
    3.3240    6.6194   -7.1590 C   0  0  0  0  0  0
    4.7807    6.2483   -7.0928 C   0  0  0  0  0  0
    3.7704    5.2245   -7.5040 C   0  0  0  0  0  0
    2.8750    7.4975   -8.2429 C   0  0  0  0  0  0
    2.4068    7.0560   -9.3136 O   0  3  0  0  0  0
    3.0350    8.8601   -7.9398 N   0  5  0  0  0  0
    2.7194    9.9927   -8.7271 C   0  0  0  0  0  0
    2.9595   11.2748   -8.2326 C   0  0  0  0  0  0
    2.6478   12.3912   -9.0085 C   0  0  0  0  0  0
    2.0960   12.2257  -10.2789 C   0  0  0  0  0  0
    1.8559   10.9437  -10.7733 C   0  0  0  0  0  0
    2.1676    9.8272   -9.9974 C   0  0  0  0  0  0
    1.7941   13.2978  -11.0228 F   0  0  0  0  0  0
    1.0445    4.5140    4.0732 H   0  0  0  0  0  0
    0.9400    6.2962    3.8740 H   0  0  0  0  0  0
    1.0858    5.2380    2.4298 H   0  0  0  0  0  0
   -1.2771    4.9976    0.8271 H   0  0  0  0  0  0
   -3.3544    7.5096   -2.7099 H   0  0  0  0  0  0
   -4.0614    9.5977   -1.5470 H   0  0  0  0  0  0
   -2.8032    9.2509    2.8530 H   0  0  0  0  0  0
   -2.3427    7.4718    6.4339 H   0  0  0  0  0  0
   -2.7737    6.1192    5.3332 H   0  0  0  0  0  0
   -3.5791    7.7148    5.1537 H   0  0  0  0  0  0
   -2.3080    4.2804   -3.8456 H   0  0  0  0  0  0
   -0.7238    4.4821   -5.7249 H   0  0  0  0  0  0
    1.6432    7.2544   -3.4247 H   0  0  0  0  0  0
    0.0564    7.0486   -1.5487 H   0  0  0  0  0  0
    5.3530    6.8848   -7.7837 H   0  0  0  0  0  0
    5.1504    6.3955   -6.0673 H   0  0  0  0  0  0
    3.2861    4.5063   -6.8260 H   0  0  0  0  0  0
    3.4888    4.9957   -8.5424 H   0  0  0  0  0  0
    3.3894   11.4158   -7.2442 H   0  0  0  0  0  0
    2.8341   13.3898   -8.6243 H   0  0  0  0  0  0
    1.4261   10.8158  -11.7625 H   0  0  0  0  0  0
    1.9762    8.8329  -10.3930 H   0  0  0  0  0  0
    4.0094    8.0744   -5.1519 H   0  0  0  0  0  0
    2.0819    7.7526  -10.1005 H   0  0  0  0  0  0
   -3.6807    9.9975    0.7503 H   0  0  0  0  0  0
  1  2  1  0  0  0
  1 38  1  0  0  0
  1 39  1  0  0  0
  1 40  1  0  0  0
  2  3  1  0  0  0
  3 12  2  0  0  0
  3  4  1  0  0  0
  4  5  2  0  0  0
  4 41  1  0  0  0
  5 10  1  0  0  0
  5  6  1  0  0  0
  6  7  2  0  0  0
  6 15  1  0  0  0
  7  8  1  0  0  0
  7 42  1  0  0  0
  8  9  2  0  0  0
  8 43  1  0  0  0
  9 10  1  0  0  0
  9 62  1  0  0  0
 10 11  2  0  0  0
 11 12  1  0  0  0
 11 44  1  0  0  0
 12 13  1  0  0  0
 13 14  1  0  0  0
 14 45  1  0  0  0
 14 46  1  0  0  0
 14 47  1  0  0  0
 15 16  1  0  0  0
 16 21  2  0  0  0
 16 17  1  0  0  0
 17 18  2  0  0  0
 17 48  1  0  0  0
 18 19  1  0  0  0
 18 49  1  0  0  0
 19 20  2  0  0  0
 19 22  1  0  0  0
 20 21  1  0  0  0
 20 50  1  0  0  0
 21 51  1  0  0  0
 22 23  1  0  0  0
 23 24  2  0  0  0
 23 25  1  0  0  0
 24 60  1  0  0  0
 25 27  1  0  0  0
 25 26  1  0  0  0
 25 28  1  0  0  0
 26 27  1  0  0  0
 26 52  1  0  0  0
 26 53  1  0  0  0
 27 54  1  0  0  0
 27 55  1  0  0  0
 28 29  2  0  0  0
 28 30  1  0  0  0
 29 61  1  0  0  0
 30 31  1  0  0  0
 31 36  2  0  0  0
 31 32  1  0  0  0
 32 33  2  0  0  0
 32 56  1  0  0  0
 33 34  1  0  0  0
 33 57  1  0  0  0
 34 35  2  0  0  0
 34 37  1  0  0  0
 35 36  1  0  0  0
 35 58  1  0  0  0
 36 59  1  0  0  0
M  CHG  5   9   1  22  -1  24   1  29   1  30  -1
M  END
> <s_m_source_file>
/Users/andrea/Development/mcce-charges/epik_inhibitors/output/Cabozantinib/Cabozantinib-input.mol2

> <i_m_source_file_index>
1

> <r_epik_Ionization_Penalty>
  0.3367

> <r_epik_Ionization_Penalty_Charging>
  0.3367

> <r_epik_Ionization_Penalty_Neutral>
  0.0000

> <r_epik_State_Penalty>
 12.9074

> <i_epik_Tot_Q>
1

$$$$
~{N}1-[4-[(6,7-dimethoxy-4-quinolyl)oxy]phenyl]-~{N}1'-(4-fluorophenyl)cyclopropane-1,1-dicarboxamide
                    3D
 Structure written by MMmdl.
 62 66  0  0  1  0            999 V2000
    0.6581    5.3258    3.4394 C   0  0  0  0  0  0
   -0.7597    5.2342    3.3634 O   0  0  0  0  0  0
   -1.3950    6.1738    2.6108 C   0  0  0  0  0  0
   -1.6183    5.9369    1.2575 C   0  0  0  0  0  0
   -2.2725    6.8963    0.4661 C   0  0  0  0  0  0
   -2.5102    6.6837   -0.8986 C   0  0  0  0  0  0
   -3.1587    7.6508   -1.6529 C   0  0  0  0  0  0
   -3.5497    8.8068   -1.0084 C   0  0  0  0  0  0
   -3.3398    9.0510    0.3055 N   0  0  0  0  0  0
   -2.7101    8.1107    1.0351 C   0  0  0  0  0  0
   -2.4739    8.3213    2.3908 C   0  0  0  0  0  0
   -1.8235    7.3676    3.1778 C   0  0  0  0  0  0
   -1.6160    7.6211    4.5002 O   0  0  0  0  0  0
   -2.6362    7.2081    5.4071 C   0  0  0  0  0  0
   -2.1171    5.5352   -1.5219 O   0  0  0  0  0  0
   -1.2282    5.6507   -2.5753 C   0  0  0  0  0  0
   -1.4434    4.9317   -3.7511 C   0  0  0  0  0  0
   -0.5469    5.0476   -4.8135 C   0  0  0  0  0  0
    0.5647    5.8825   -4.7001 C   0  0  0  0  0  0
    0.7799    6.6014   -3.5242 C   0  0  0  0  0  0
   -0.1165    6.4855   -2.4619 C   0  0  0  0  0  0
    1.4633    5.9956   -5.7613 N   0  0  0  0  0  0
    2.6251    6.7759   -5.8319 C   0  0  0  0  0  0
    3.0814    7.5142   -4.9648 O   0  0  0  0  0  0
    3.3240    6.6194   -7.1590 C   0  0  0  0  0  0
    4.7807    6.2483   -7.0928 C   0  0  0  0  0  0
    3.7704    5.2245   -7.5040 C   0  0  0  0  0  0
    2.8750    7.4975   -8.2429 C   0  0  0  0  0  0
    2.4068    7.0560   -9.3136 O   0  3  0  0  0  0
    3.0350    8.8601   -7.9398 N   0  0  0  0  0  0
    2.7194    9.9927   -8.7271 C   0  0  0  0  0  0
    2.9595   11.2748   -8.2326 C   0  0  0  0  0  0
    2.6478   12.3912   -9.0085 C   0  0  0  0  0  0
    2.0960   12.2257  -10.2789 C   0  0  0  0  0  0
    1.8559   10.9437  -10.7733 C   0  0  0  0  0  0
    2.1676    9.8272   -9.9974 C   0  0  0  0  0  0
    1.7941   13.2978  -11.0228 F   0  0  0  0  0  0
    1.0445    4.5140    4.0732 H   0  0  0  0  0  0
    0.9400    6.2962    3.8740 H   0  0  0  0  0  0
    1.0858    5.2380    2.4298 H   0  0  0  0  0  0
   -1.2771    4.9976    0.8271 H   0  0  0  0  0  0
   -3.3544    7.5096   -2.7099 H   0  0  0  0  0  0
   -4.0614    9.5977   -1.5470 H   0  0  0  0  0  0
   -2.8032    9.2509    2.8530 H   0  0  0  0  0  0
   -2.3427    7.4718    6.4339 H   0  0  0  0  0  0
   -2.7737    6.1192    5.3332 H   0  0  0  0  0  0
   -3.5791    7.7148    5.1537 H   0  0  0  0  0  0
   -2.3080    4.2804   -3.8456 H   0  0  0  0  0  0
   -0.7238    4.4821   -5.7249 H   0  0  0  0  0  0
    1.6432    7.2544   -3.4247 H   0  0  0  0  0  0
    0.0564    7.0486   -1.5487 H   0  0  0  0  0  0
    1.2951    5.4264   -6.6875 H   0  0  0  0  0  0
    5.3530    6.8848   -7.7837 H   0  0  0  0  0  0
    5.1504    6.3955   -6.0673 H   0  0  0  0  0  0
    3.2861    4.5063   -6.8260 H   0  0  0  0  0  0
    3.4888    4.9957   -8.5424 H   0  0  0  0  0  0
    3.4597    9.1619   -6.9710 H   0  0  0  0  0  0
    3.3894   11.4158   -7.2442 H   0  0  0  0  0  0
    2.8341   13.3898   -8.6243 H   0  0  0  0  0  0
    1.4261   10.8158  -11.7625 H   0  0  0  0  0  0
    1.9762    8.8329  -10.3930 H   0  0  0  0  0  0
    2.0819    7.7526  -10.1005 H   0  0  0  0  0  0
  1  2  1  0  0  0
  1 38  1  0  0  0
  1 39  1  0  0  0
  1 40  1  0  0  0
  2  3  1  0  0  0
  3 12  2  0  0  0
  3  4  1  0  0  0
  4  5  2  0  0  0
  4 41  1  0  0  0
  5 10  1  0  0  0
  5  6  1  0  0  0
  6  7  2  0  0  0
  6 15  1  0  0  0
  7  8  1  0  0  0
  7 42  1  0  0  0
  8  9  2  0  0  0
  8 43  1  0  0  0
  9 10  1  0  0  0
 10 11  2  0  0  0
 11 12  1  0  0  0
 11 44  1  0  0  0
 12 13  1  0  0  0
 13 14  1  0  0  0
 14 45  1  0  0  0
 14 46  1  0  0  0
 14 47  1  0  0  0
 15 16  1  0  0  0
 16 21  2  0  0  0
 16 17  1  0  0  0
 17 18  2  0  0  0
 17 48  1  0  0  0
 18 19  1  0  0  0
 18 49  1  0  0  0
 19 20  2  0  0  0
 19 22  1  0  0  0
 20 21  1  0  0  0
 20 50  1  0  0  0
 21 51  1  0  0  0
 22 23  1  0  0  0
 22 52  1  0  0  0
 23 24  2  0  0  0
 23 25  1  0  0  0
 25 27  1  0  0  0
 25 26  1  0  0  0
 25 28  1  0  0  0
 26 27  1  0  0  0
 26 53  1  0  0  0
 26 54  1  0  0  0
 27 55  1  0  0  0
 27 56  1  0  0  0
 28 29  2  0  0  0
 28 30  1  0  0  0
 29 62  1  0  0  0
 30 31  1  0  0  0
 30 57  1  0  0  0
 31 36  2  0  0  0
 31 32  1  0  0  0
 32 33  2  0  0  0
 32 58  1  0  0  0
 33 34  1  0  0  0
 33 59  1  0  0  0
 34 35  2  0  0  0
 34 37  1  0  0  0
 35 36  1  0  0  0
 35 60  1  0  0  0
 36 61  1  0  0  0
M  CHG  1  29   1
M  END
> <s_m_source_file>
/Users/andrea/Development/mcce-charges/epik_inhibitors/output/Cabozantinib/Cabozantinib-input.mol2

> <i_m_source_file_index>
1

> <r_epik_Ionization_Penalty>
 12.0603

> <r_epik_Ionization_Penalty_Charging>
  8.8076

> <r_epik_Ionization_Penalty_Neutral>
  3.2527

> <r_epik_State_Penalty>
 12.9504

> <i_epik_Tot_Q>
1

$$$$
~{N}1-[4-[(6,7-dimethoxy-4-quinolyl)oxy]phenyl]-~{N}1'-(4-fluorophenyl)cyclopropane-1,1-dicarboxamide
                    3D
 Structure written by MMmdl.
 61 65  0  0  1  0            999 V2000
    0.6581    5.3258    3.4394 C   0  0  0  0  0  0
   -0.7597    5.2342    3.3634 O   0  0  0  0  0  0
   -1.3950    6.1738    2.6108 C   0  0  0  0  0  0
   -1.6183    5.9369    1.2575 C   0  0  0  0  0  0
   -2.2725    6.8963    0.4661 C   0  0  0  0  0  0
   -2.5102    6.6837   -0.8986 C   0  0  0  0  0  0
   -3.1587    7.6508   -1.6529 C   0  0  0  0  0  0
   -3.5497    8.8068   -1.0084 C   0  0  0  0  0  0
   -3.3398    9.0510    0.3055 N   0  0  0  0  0  0
   -2.7101    8.1107    1.0351 C   0  0  0  0  0  0
   -2.4739    8.3213    2.3908 C   0  0  0  0  0  0
   -1.8235    7.3676    3.1778 C   0  0  0  0  0  0
   -1.6160    7.6211    4.5002 O   0  0  0  0  0  0
   -2.6362    7.2081    5.4071 C   0  0  0  0  0  0
   -2.1171    5.5352   -1.5219 O   0  0  0  0  0  0
   -1.2282    5.6507   -2.5753 C   0  0  0  0  0  0
   -1.4434    4.9317   -3.7511 C   0  0  0  0  0  0
   -0.5469    5.0476   -4.8135 C   0  0  0  0  0  0
    0.5647    5.8825   -4.7001 C   0  0  0  0  0  0
    0.7799    6.6014   -3.5242 C   0  0  0  0  0  0
   -0.1165    6.4855   -2.4619 C   0  0  0  0  0  0
    1.4633    5.9956   -5.7613 N   0  5  0  0  0  0
    2.6251    6.7759   -5.8319 C   0  0  0  0  0  0
    3.0814    7.5142   -4.9648 O   0  3  0  0  0  0
    3.3240    6.6194   -7.1590 C   0  0  0  0  0  0
    4.7807    6.2483   -7.0928 C   0  0  0  0  0  0
    3.7704    5.2245   -7.5040 C   0  0  0  0  0  0
    2.8750    7.4975   -8.2429 C   0  0  0  0  0  0
    2.4068    7.0560   -9.3136 O   0  3  0  0  0  0
    3.0350    8.8601   -7.9398 N   0  5  0  0  0  0
    2.7194    9.9927   -8.7271 C   0  0  0  0  0  0
    2.9595   11.2748   -8.2326 C   0  0  0  0  0  0
    2.6478   12.3912   -9.0085 C   0  0  0  0  0  0
    2.0960   12.2257  -10.2789 C   0  0  0  0  0  0
    1.8559   10.9437  -10.7733 C   0  0  0  0  0  0
    2.1676    9.8272   -9.9974 C   0  0  0  0  0  0
    1.7941   13.2978  -11.0228 F   0  0  0  0  0  0
    1.0445    4.5140    4.0732 H   0  0  0  0  0  0
    0.9400    6.2962    3.8740 H   0  0  0  0  0  0
    1.0858    5.2380    2.4298 H   0  0  0  0  0  0
   -1.2771    4.9976    0.8271 H   0  0  0  0  0  0
   -3.3544    7.5096   -2.7099 H   0  0  0  0  0  0
   -4.0614    9.5977   -1.5470 H   0  0  0  0  0  0
   -2.8032    9.2509    2.8530 H   0  0  0  0  0  0
   -2.3427    7.4718    6.4339 H   0  0  0  0  0  0
   -2.7737    6.1192    5.3332 H   0  0  0  0  0  0
   -3.5791    7.7148    5.1537 H   0  0  0  0  0  0
   -2.3080    4.2804   -3.8456 H   0  0  0  0  0  0
   -0.7238    4.4821   -5.7249 H   0  0  0  0  0  0
    1.6432    7.2544   -3.4247 H   0  0  0  0  0  0
    0.0564    7.0486   -1.5487 H   0  0  0  0  0  0
    5.3530    6.8848   -7.7837 H   0  0  0  0  0  0
    5.1504    6.3955   -6.0673 H   0  0  0  0  0  0
    3.2861    4.5063   -6.8260 H   0  0  0  0  0  0
    3.4888    4.9957   -8.5424 H   0  0  0  0  0  0
    3.3894   11.4158   -7.2442 H   0  0  0  0  0  0
    2.8341   13.3898   -8.6243 H   0  0  0  0  0  0
    1.4261   10.8158  -11.7625 H   0  0  0  0  0  0
    1.9762    8.8329  -10.3930 H   0  0  0  0  0  0
    4.0094    8.0744   -5.1519 H   0  0  0  0  0  0
    2.0819    7.7526  -10.1005 H   0  0  0  0  0  0
  1  2  1  0  0  0
  1 38  1  0  0  0
  1 39  1  0  0  0
  1 40  1  0  0  0
  2  3  1  0  0  0
  3 12  2  0  0  0
  3  4  1  0  0  0
  4  5  2  0  0  0
  4 41  1  0  0  0
  5 10  1  0  0  0
  5  6  1  0  0  0
  6  7  2  0  0  0
  6 15  1  0  0  0
  7  8  1  0  0  0
  7 42  1  0  0  0
  8  9  2  0  0  0
  8 43  1  0  0  0
  9 10  1  0  0  0
 10 11  2  0  0  0
 11 12  1  0  0  0
 11 44  1  0  0  0
 12 13  1  0  0  0
 13 14  1  0  0  0
 14 45  1  0  0  0
 14 46  1  0  0  0
 14 47  1  0  0  0
 15 16  1  0  0  0
 16 21  2  0  0  0
 16 17  1  0  0  0
 17 18  2  0  0  0
 17 48  1  0  0  0
 18 19  1  0  0  0
 18 49  1  0  0  0
 19 20  2  0  0  0
 19 22  1  0  0  0
 20 21  1  0  0  0
 20 50  1  0  0  0
 21 51  1  0  0  0
 22 23  1  0  0  0
 23 24  2  0  0  0
 23 25  1  0  0  0
 24 60  1  0  0  0
 25 27  1  0  0  0
 25 26  1  0  0  0
 25 28  1  0  0  0
 26 27  1  0  0  0
 26 52  1  0  0  0
 26 53  1  0  0  0
 27 54  1  0  0  0
 27 55  1  0  0  0
 28 29  2  0  0  0
 28 30  1  0  0  0
 29 61  1  0  0  0
 30 31  1  0  0  0
 31 36  2  0  0  0
 31 32  1  0  0  0
 32 33  2  0  0  0
 32 56  1  0  0  0
 33 34  1  0  0  0
 33 57  1  0  0  0
 34 35  2  0  0  0
 34 37  1  0  0  0
 35 36  1  0  0  0
 35 58  1  0  0  0
 36 59  1  0  0  0
M  CHG  4  22  -1  24   1  29   1  30  -1
M  END
> <s_m_source_file>
/Users/andrea/Development/mcce-charges/epik_inhibitors/output/Cabozantinib/Cabozantinib-input.mol2

> <i_m_source_file_index>
1

> <r_epik_Ionization_Penalty>
  0.5818

> <r_epik_Ionization_Penalty_Charging>
  0.0360

> <r_epik_Ionization_Penalty_Neutral>
  0.5458

> <r_epik_State_Penalty>
 13.1688

> <i_epik_Tot_Q>
0

$$$$
