@<TRIPOS>MOLECULE
~{N}1-[4-[(6,7-dimethoxy-4-quinolyl)oxy]phenyl]-~{N}1'-(4-fluorophenyl)cyclopropane-1,1-dicarboxamide
   61    65     0     0     0
SMALL
USER_CHARGES

@<TRIPOS>ATOM
      1 C1          0.6581    5.3258    3.4394 C.3       1 CAB         0.1184
      2 O1         -0.7597    5.2342    3.3634 O.3       1 CAB        -0.3414
      3 C2         -1.3950    6.1738    2.6108 C.ar      1 CAB         0.0732
      4 C3         -1.6183    5.9369    1.2575 C.ar      1 CAB        -0.0995
      5 C4         -2.2725    6.8963    0.4661 C.ar      1 CAB        -0.1561
      6 C5         -2.5102    6.6837   -0.8986 C.ar      1 CAB         0.1735
      7 C6         -3.1587    7.6508   -1.6529 C.ar      1 CAB        -0.3342
      8 C7         -3.5497    8.8068   -1.0084 C.ar      1 CAB         0.4423
      9 N1         -3.3398    9.0510    0.3055 N.ar      1 CAB        -0.6764
     10 C8         -2.7101    8.1107    1.0351 C.ar      1 CAB         0.4159
     11 C9         -2.4739    8.3213    2.3908 C.ar      1 CAB        -0.1876
     12 C10        -1.8235    7.3676    3.1778 C.ar      1 CAB         0.1012
     13 O2         -1.6160    7.6211    4.5002 O.3       1 CAB        -0.3436
     14 C11        -2.6362    7.2081    5.4071 C.3       1 CAB         0.1187
     15 O3         -2.1171    5.5352   -1.5219 O.3       1 CAB        -0.2415
     16 C12        -1.2282    5.6507   -2.5753 C.ar      1 CAB         0.0426
     17 C13        -1.4434    4.9317   -3.7511 C.ar      1 CAB        -0.1008
     18 C14        -0.5469    5.0476   -4.8135 C.ar      1 CAB        -0.1606
     19 C15         0.5647    5.8825   -4.7001 C.ar      1 CAB         0.0748
     20 C16         0.7799    6.6014   -3.5242 C.ar      1 CAB        -0.1606
     21 C17        -0.1165    6.4855   -2.4619 C.ar      1 CAB        -0.1008
     22 N2          1.4633    5.9956   -5.7613 N.am      1 CAB        -0.4556
     23 C18         2.6251    6.7759   -5.8319 C.2       1 CAB         0.7162
     24 O4          3.0814    7.5142   -4.9648 O.2       1 CAB        -0.5651
     25 C19         3.3240    6.6194   -7.1590 C.3       1 CAB        -0.2933
     26 C20         4.7807    6.2483   -7.0928 C.3       1 CAB        -0.0988
     27 C21         3.7704    5.2245   -7.5040 C.3       1 CAB        -0.0988
     28 C22         2.8750    7.4975   -8.2429 C.2       1 CAB         0.7127
     29 O5          2.4068    7.0560   -9.3136 O.2       1 CAB        -0.5775
     30 N3          3.0350    8.8601   -7.9398 N.am      1 CAB        -0.4704
     31 C23         2.7194    9.9927   -8.7271 C.ar      1 CAB         0.0543
     32 C24         2.9595   11.2748   -8.2326 C.ar      1 CAB        -0.1420
     33 C25         2.6478   12.3912   -9.0085 C.ar      1 CAB        -0.1383
     34 C26         2.0960   12.2257  -10.2789 C.ar      1 CAB         0.1025
     35 C27         1.8559   10.9437  -10.7733 C.ar      1 CAB        -0.1383
     36 C28         2.1676    9.8272   -9.9974 C.ar      1 CAB        -0.1420
     37 F1          1.7941   13.2978  -11.0228 F         1 CAB        -0.1388
     38 H1          1.0429    4.5198    4.0690 H         1 CAB         0.0439
     39 H2          0.9395    6.2954    3.8580 H         1 CAB         0.0439
     40 H3          1.0749    5.2304    2.4340 H         1 CAB         0.0439
     41 H4         -1.2771    4.9976    0.8271 H         1 CAB         0.1625
     42 H5         -3.3544    7.5096   -2.7099 H         1 CAB         0.1577
     43 H6         -4.0614    9.5977   -1.5470 H         1 CAB         0.0226
     44 H7         -2.8032    9.2509    2.8530 H         1 CAB         0.1648
     45 H8         -2.3379    7.4726    6.4209 H         1 CAB         0.0444
     46 H9         -2.7758    6.1313    5.3177 H         1 CAB         0.0444
     47 H10        -3.5593    7.7241    5.1464 H         1 CAB         0.0444
     48 H11        -2.3080    4.2804   -3.8456 H         1 CAB         0.1536
     49 H12        -0.7238    4.4821   -5.7249 H         1 CAB         0.1568
     50 H13         1.6432    7.2544   -3.4247 H         1 CAB         0.1568
     51 H14         0.0564    7.0486   -1.5487 H         1 CAB         0.1536
     52 H15         1.2529    5.4392   -6.5980 H         1 CAB         0.3266
     53 H16         5.4375    6.6430   -7.8594 H         1 CAB         0.0919
     54 H17         5.2580    6.1246   -6.1276 H         1 CAB         0.0919
     55 H18         3.7479    4.9306   -8.5470 H         1 CAB         0.0919
     56 H19         3.5683    4.4123   -6.8152 H         1 CAB         0.0919
     57 H20         3.4341    9.0607   -7.0251 H         1 CAB         0.3144
     58 H21         3.3894   11.4158   -7.2442 H         1 CAB         0.1543
     59 H22         2.8341   13.3898   -8.6243 H         1 CAB         0.1525
     60 H23         1.4261   10.8158  -11.7625 H         1 CAB         0.1525
     61 H24         1.9762    8.8329  -10.3930 H         1 CAB         0.1543
@<TRIPOS>BOND
     1    1    2 1
     2    2    3 1
     3    3   12 ar
     4    3    4 ar
     5    4    5 ar
     6    5   10 ar
     7    5    6 ar
     8    6    7 ar
     9    7    8 ar
    10    8    9 ar
    11    9   10 ar
    12   10   11 ar
    13   11   12 ar
    14   12   13 1
    15   13   14 1
    16    6   15 1
    17   15   16 1
    18   16   21 ar
    19   16   17 ar
    20   17   18 ar
    21   18   19 ar
    22   19   20 ar
    23   20   21 ar
    24   19   22 1
    25   22   23 am
    26   23   24 2
    27   23   25 1
    28   25   27 1
    29   25   26 1
    30   26   27 1
    31   25   28 1
    32   28   29 2
    33   28   30 am
    34   30   31 1
    35   31   36 ar
    36   31   32 ar
    37   32   33 ar
    38   33   34 ar
    39   34   35 ar
    40   35   36 ar
    41   34   37 1
    42    1   38 1
    43    1   39 1
    44    1   40 1
    45    4   41 1
    46    7   42 1
    47    8   43 1
    48   11   44 1
    49   14   45 1
    50   14   46 1
    51   14   47 1
    52   17   48 1
    53   18   49 1
    54   20   50 1
    55   21   51 1
    56   22   52 1
    57   26   53 1
    58   26   54 1
    59   27   55 1
    60   27   56 1
    61   30   57 1
    62   32   58 1
    63   33   59 1
    64   35   60 1
    65   36   61 1
