@<TRIPOS>MOLECULE
~{N}-methyl-2-[[3-[(~{E})-2-(2-pyridyl)vinyl]-1~{H}-indazol-6-yl]sulfanyl]benzamide
46   49    1
SMALL
USER_CHARGES


@<TRIPOS>ATOM
      1 C1         -0.5755   -3.0907    3.5024 C.3       1 AXI         0.0802 
      2 N1         -0.7609   -3.0963    2.0691 N.am      1 AXI        -0.5743 
      3 C2         -1.5516   -2.1623    1.4188 C.2       1 AXI         0.6672 
      4 O1         -2.1644   -1.2531    1.9723 O.2       1 AXI        -0.5832 
      5 C3         -1.6595   -2.3172   -0.0276 C.ar      1 AXI        -0.1328 
      6 C4         -2.1927   -3.5113   -0.5130 C.ar      1 AXI        -0.0938 
      7 C5         -2.3193   -3.7106   -1.8878 C.ar      1 AXI        -0.1467 
      8 C6         -1.9126   -2.7159   -2.7771 C.ar      1 AXI        -0.0974 
      9 C7         -1.3794   -1.5219   -2.2916 C.ar      1 AXI        -0.1577 
     10 C8         -1.2528   -1.3226   -0.9169 C.ar      1 AXI         0.0285 
     11 S1         -0.5618    0.2240   -0.3504 S.3       1 AXI        -0.0864 
     12 C9          0.8725   -0.3471    0.5479 C.ar      1 AXI        -0.0352 
     13 C10         1.8575   -1.0770   -0.1202 C.ar      1 AXI        -0.1080 
     14 C11         2.9942   -1.5392    0.5550 C.ar      1 AXI        -0.0801 
     15 C12         3.1242   -1.2526    1.9242 C.ar      1 AXI        -0.1729 
     16 C13         2.1285   -0.5238    2.5651 C.ar      1 AXI         0.0545 
     17 C14         0.9878   -0.0537    1.9107 C.ar      1 AXI        -0.0801 
     18 N2          2.5420   -0.4150    3.8654 N.pl3     1 AXI        -0.3860 
     19 N3          3.7190   -1.0102    4.1207 N.2       1 AXI        -0.3947 
     20 C15         4.0702   -1.5186    2.9374 C.ar      1 AXI         0.3773 
     21 C16         5.2721   -2.2471    2.7384 C.2       1 AXI        -0.1776 
     22 C17         6.2213   -2.5307    3.6913 C.2       1 AXI        -0.1980 
     23 C18         7.4594   -3.3037    3.4886 C.ar      1 AXI         0.4461 
     24 C19         8.3270   -3.5111    4.5488 C.ar      1 AXI        -0.2368 
     25 C20         9.4824   -4.2469    4.3098 C.ar      1 AXI        -0.0928 
     26 C21         9.7311   -4.7458    3.0360 C.ar      1 AXI        -0.2453 
     27 C22         8.8006   -4.4832    2.0435 C.ar      1 AXI         0.3986 
     28 N4          7.6671   -3.7725    2.2377 N.ar      1 AXI        -0.6566 
     29 H1          0.0880   -3.9198    3.7895 H         1 AXI         0.0431 
     30 H2         -1.5497   -3.2120    3.9986 H         1 AXI         0.0431 
     31 H3         -0.1237   -2.1361    3.8099 H         1 AXI         0.0431 
     32 H4         -0.2652   -3.8613    1.4534 H         1 AXI         0.3101 
     33 H5         -2.5131   -4.2949    0.1691 H         1 AXI         0.1410 
     34 H6         -2.7340   -4.6407   -2.2659 H         1 AXI         0.1378 
     35 H7         -2.0117   -2.8712   -3.8472 H         1 AXI         0.1360 
     36 H8         -1.0686   -0.7600   -3.0024 H         1 AXI         0.1467 
     37 H9          1.7598   -1.3008   -1.1806 H         1 AXI         0.1544 
     38 H10         3.7515   -2.1056    0.0213 H         1 AXI         0.1449 
     39 H11         0.2325    0.5123    2.4465 H         1 AXI         0.1523 
     40 H12         1.9224    0.1255    4.5962 H         1 AXI         0.4865 
     41 H13         5.4094   -2.5961    1.7043 H         1 AXI         0.1330 
     42 H14         6.0916   -2.1683    4.7218 H         1 AXI         0.1617 
     43 H15         8.1262   -3.1187    5.5406 H         1 AXI         0.1438 
     44 H16        10.1874   -4.4325    5.1146 H         1 AXI         0.1387 
     45 H17        10.6254   -5.3213    2.8270 H         1 AXI         0.1440 
     46 H18         8.9483   -4.8486    1.0326 H         1 AXI         0.0235 
@<TRIPOS>BOND
     1    1    2 1    
     2    1   29 1    
     3    1   30 1    
     4    1   31 1    
     5    2    3 am   BACKBONE|DICT|INTERRES
     6    2   32 1    
     7    3    4 2    
     8    3    5 1    
     9    5   10 ar   
    10    5    6 ar   
    11    6    7 ar   
    12    6   33 1    
    13    7    8 ar   
    14    7   34 1    
    15    8    9 ar   
    16    8   35 1    
    17    9   10 ar   
    18    9   36 1    
    19   10   11 1    
    20   11   12 1    
    21   12   17 ar   
    22   12   13 ar   
    23   13   14 ar   
    24   13   37 1    
    25   14   15 ar   
    26   14   38 1    
    27   15   20 ar   
    28   15   16 ar   
    29   16   17 ar   
    30   16   18 ar   
    31   17   39 1    
    32   18   19 ar   
    33   18   40 1    
    34   19   20 ar   
    35   20   21 1    
    36   21   22 2    
    37   21   41 1    
    38   22   23 1    
    39   22   42 1    
    40   23   28 ar   
    41   23   24 ar   
    42   24   25 ar   
    43   24   43 1    
    44   25   26 ar   
    45   25   44 1    
    46   26   27 ar   
    47   26   45 1    
    48   27   28 ar   
    49   27   46 1    
@<TRIPOS>SUBSTRUCTURE
     1 AXI         1 GROUP             0       ****    0 ROOT    
@<TRIPOS>MOLECULE
~{N}-methyl-2-[[3-[(~{E})-2-(2-pyridyl)vinyl]-1~{H}-indazol-6-yl]sulfanyl]benzamide
46   49    1
SMALL
USER_CHARGES


@<TRIPOS>ATOM
      1 C1         -0.5755   -3.0907    3.5024 C.3       1 AXI         0.0802 
      2 N1         -0.7609   -3.0963    2.0691 N.am      1 AXI        -0.5743 
      3 C2         -1.5516   -2.1623    1.4188 C.2       1 AXI         0.6672 
      4 O1         -2.1644   -1.2531    1.9723 O.2       1 AXI        -0.5832 
      5 C3         -1.6595   -2.3172   -0.0276 C.ar      1 AXI        -0.1328 
      6 C4         -2.1927   -3.5113   -0.5130 C.ar      1 AXI        -0.0938 
      7 C5         -2.3193   -3.7106   -1.8878 C.ar      1 AXI        -0.1467 
      8 C6         -1.9126   -2.7159   -2.7771 C.ar      1 AXI        -0.0974 
      9 C7         -1.3794   -1.5219   -2.2916 C.ar      1 AXI        -0.1577 
     10 C8         -1.2528   -1.3226   -0.9169 C.ar      1 AXI         0.0285 
     11 S1         -0.5618    0.2240   -0.3504 S.3       1 AXI        -0.0864 
     12 C9          0.8725   -0.3471    0.5479 C.ar      1 AXI        -0.0352 
     13 C10         1.8575   -1.0770   -0.1202 C.ar      1 AXI        -0.1080 
     14 C11         2.9942   -1.5392    0.5550 C.ar      1 AXI        -0.0801 
     15 C12         3.1242   -1.2526    1.9242 C.ar      1 AXI        -0.1729 
     16 C13         2.1285   -0.5238    2.5651 C.ar      1 AXI         0.0545 
     17 C14         0.9878   -0.0537    1.9107 C.ar      1 AXI        -0.0801 
     18 N2          2.5420   -0.4150    3.8654 N.2       1 AXI        -0.3860 
     19 N3          3.7190   -1.0102    4.1207 N.pl3     1 AXI        -0.3947 
     20 C15         4.0702   -1.5186    2.9374 C.ar      1 AXI         0.3773 
     21 C16         5.2721   -2.2471    2.7384 C.2       1 AXI        -0.1776 
     22 C17         6.2213   -2.5307    3.6913 C.2       1 AXI        -0.1980 
     23 C18         7.4594   -3.3037    3.4886 C.ar      1 AXI         0.4461 
     24 C19         8.3270   -3.5111    4.5488 C.ar      1 AXI        -0.2368 
     25 C20         9.4824   -4.2469    4.3098 C.ar      1 AXI        -0.0928 
     26 C21         9.7311   -4.7458    3.0360 C.ar      1 AXI        -0.2453 
     27 C22         8.8006   -4.4832    2.0435 C.ar      1 AXI         0.3986 
     28 N4          7.6671   -3.7725    2.2377 N.ar      1 AXI        -0.6566 
     29 H1          0.0880   -3.9198    3.7895 H         1 AXI         0.0431 
     30 H2         -1.5497   -3.2120    3.9986 H         1 AXI         0.0431 
     31 H3         -0.1237   -2.1361    3.8099 H         1 AXI         0.0431 
     32 H4         -0.2652   -3.8613    1.4534 H         1 AXI         0.3101 
     33 H5         -2.5131   -4.2949    0.1691 H         1 AXI         0.1410 
     34 H6         -2.7340   -4.6407   -2.2659 H         1 AXI         0.1378 
     35 H7         -2.0117   -2.8712   -3.8472 H         1 AXI         0.1360 
     36 H8         -1.0686   -0.7600   -3.0024 H         1 AXI         0.1467 
     37 H9          1.7598   -1.3008   -1.1806 H         1 AXI         0.1544 
     38 H10         3.7515   -2.1056    0.0213 H         1 AXI         0.1449 
     39 H11         0.2325    0.5123    2.4465 H         1 AXI         0.1523 
     40 H13         5.4094   -2.5961    1.7043 H         1 AXI         0.1330 
     41 H14         6.0916   -2.1683    4.7218 H         1 AXI         0.1617 
     42 H15         8.1262   -3.1187    5.5406 H         1 AXI         0.1438 
     43 H16        10.1874   -4.4325    5.1146 H         1 AXI         0.1387 
     44 H17        10.6254   -5.3213    2.8270 H         1 AXI         0.1440 
     45 H18         8.9483   -4.8486    1.0326 H         1 AXI         0.0235 
     46 H46         4.1412   -0.9811    5.1360 H         1 AXI         0.0000 
@<TRIPOS>BOND
     1    1    2 1    
     2    1   29 1    
     3    1   30 1    
     4    1   31 1    
     5    2    3 am   BACKBONE|DICT|INTERRES
     6    2   32 1    
     7    3    4 2    
     8    3    5 1    
     9    5   10 ar   
    10    5    6 ar   
    11    6    7 ar   
    12    6   33 1    
    13    7    8 ar   
    14    7   34 1    
    15    8    9 ar   
    16    8   35 1    
    17    9   10 ar   
    18    9   36 1    
    19   10   11 1    
    20   11   12 1    
    21   12   17 ar   
    22   12   13 ar   
    23   13   14 ar   
    24   13   37 1    
    25   14   15 ar   
    26   14   38 1    
    27   15   20 ar   
    28   15   16 ar   
    29   16   17 ar   
    30   16   18 ar   
    31   17   39 1    
    32   18   19 ar   
    33   19   20 ar   
    34   19   46 1    
    35   20   21 1    
    36   21   22 2    
    37   21   40 1    
    38   22   23 1    
    39   22   41 1    
    40   23   28 ar   
    41   23   24 ar   
    42   24   25 ar   
    43   24   42 1    
    44   25   26 ar   
    45   25   43 1    
    46   26   27 ar   
    47   26   44 1    
    48   27   28 ar   
    49   27   45 1    
@<TRIPOS>SUBSTRUCTURE
     1 AXI         1 GROUP             0       ****    0 ROOT    
@<TRIPOS>MOLECULE
~{N}-methyl-2-[[3-[(~{E})-2-(2-pyridyl)vinyl]-1~{H}-indazol-6-yl]sulfanyl]benzamide
47   50    1
SMALL
USER_CHARGES


@<TRIPOS>ATOM
      1 C1         -0.5755   -3.0907    3.5024 C.3       1 AXI         0.0802 
      2 N1         -0.7609   -3.0963    2.0691 N.am      1 AXI        -0.5743 
      3 C2         -1.5516   -2.1623    1.4188 C.2       1 AXI         0.6672 
      4 O1         -2.1644   -1.2531    1.9723 O.2       1 AXI        -0.5832 
      5 C3         -1.6595   -2.3172   -0.0276 C.ar      1 AXI        -0.1328 
      6 C4         -2.1927   -3.5113   -0.5130 C.ar      1 AXI        -0.0938 
      7 C5         -2.3193   -3.7106   -1.8878 C.ar      1 AXI        -0.1467 
      8 C6         -1.9126   -2.7159   -2.7771 C.ar      1 AXI        -0.0974 
      9 C7         -1.3794   -1.5219   -2.2916 C.ar      1 AXI        -0.1577 
     10 C8         -1.2528   -1.3226   -0.9169 C.ar      1 AXI         0.0285 
     11 S1         -0.5618    0.2240   -0.3504 S.3       1 AXI        -0.0864 
     12 C9          0.8725   -0.3471    0.5479 C.ar      1 AXI        -0.0352 
     13 C10         1.8575   -1.0770   -0.1202 C.ar      1 AXI        -0.1080 
     14 C11         2.9942   -1.5392    0.5550 C.ar      1 AXI        -0.0801 
     15 C12         3.1242   -1.2526    1.9242 C.ar      1 AXI        -0.1729 
     16 C13         2.1285   -0.5238    2.5651 C.ar      1 AXI         0.0545 
     17 C14         0.9878   -0.0537    1.9107 C.ar      1 AXI        -0.0801 
     18 N2          2.5420   -0.4150    3.8654 N.pl3     1 AXI        -0.3860 
     19 N3          3.7190   -1.0102    4.1207 N.2       1 AXI        -0.3947 
     20 C15         4.0702   -1.5186    2.9374 C.ar      1 AXI         0.3773 
     21 C16         5.2721   -2.2471    2.7384 C.2       1 AXI        -0.1776 
     22 C17         6.2213   -2.5307    3.6913 C.2       1 AXI        -0.1980 
     23 C18         7.4594   -3.3037    3.4886 C.ar      1 AXI         0.4461 
     24 C19         8.3270   -3.5111    4.5488 C.ar      1 AXI        -0.2368 
     25 C20         9.4824   -4.2469    4.3098 C.ar      1 AXI        -0.0928 
     26 C21         9.7311   -4.7458    3.0360 C.ar      1 AXI        -0.2453 
     27 C22         8.8006   -4.4832    2.0435 C.ar      1 AXI         0.3986 
     28 N4          7.6671   -3.7725    2.2377 N.pl3     1 AXI        -0.6566 
     29 H1          0.0880   -3.9198    3.7895 H         1 AXI         0.0431 
     30 H2         -1.5497   -3.2120    3.9986 H         1 AXI         0.0431 
     31 H3         -0.1237   -2.1361    3.8099 H         1 AXI         0.0431 
     32 H4         -0.2652   -3.8613    1.4534 H         1 AXI         0.3101 
     33 H5         -2.5131   -4.2949    0.1691 H         1 AXI         0.1410 
     34 H6         -2.7340   -4.6407   -2.2659 H         1 AXI         0.1378 
     35 H7         -2.0117   -2.8712   -3.8472 H         1 AXI         0.1360 
     36 H8         -1.0686   -0.7600   -3.0024 H         1 AXI         0.1467 
     37 H9          1.7598   -1.3008   -1.1806 H         1 AXI         0.1544 
     38 H10         3.7515   -2.1056    0.0213 H         1 AXI         0.1449 
     39 H11         0.2325    0.5123    2.4465 H         1 AXI         0.1523 
     40 H12         1.9224    0.1255    4.5962 H         1 AXI         0.4865 
     41 H13         5.4094   -2.5961    1.7043 H         1 AXI         0.1330 
     42 H14         6.0916   -2.1683    4.7218 H         1 AXI         0.1617 
     43 H15         8.1262   -3.1187    5.5406 H         1 AXI         0.1438 
     44 H16        10.1874   -4.4325    5.1146 H         1 AXI         0.1387 
     45 H17        10.6254   -5.3213    2.8270 H         1 AXI         0.1440 
     46 H18         8.9483   -4.8486    1.0326 H         1 AXI         0.0235 
     47 H47         6.9327   -3.5680    1.4447 H         1 AXI         0.0000 
@<TRIPOS>BOND
     1    1    2 1    
     2    1   29 1    
     3    1   30 1    
     4    1   31 1    
     5    2    3 am   BACKBONE|DICT|INTERRES
     6    2   32 1    
     7    3    4 2    
     8    3    5 1    
     9    5   10 ar   
    10    5    6 ar   
    11    6    7 ar   
    12    6   33 1    
    13    7    8 ar   
    14    7   34 1    
    15    8    9 ar   
    16    8   35 1    
    17    9   10 ar   
    18    9   36 1    
    19   10   11 1    
    20   11   12 1    
    21   12   17 ar   
    22   12   13 ar   
    23   13   14 ar   
    24   13   37 1    
    25   14   15 ar   
    26   14   38 1    
    27   15   20 ar   
    28   15   16 ar   
    29   16   17 ar   
    30   16   18 ar   
    31   17   39 1    
    32   18   19 ar   
    33   18   40 1    
    34   19   20 ar   
    35   20   21 1    
    36   21   22 2    
    37   21   41 1    
    38   22   23 1    
    39   22   42 1    
    40   23   28 ar   
    41   23   24 ar   
    42   24   25 ar   
    43   24   43 1    
    44   25   26 ar   
    45   25   44 1    
    46   26   27 ar   
    47   26   45 1    
    48   27   28 ar   
    49   27   46 1    
    50   28   47 1    
@<TRIPOS>SUBSTRUCTURE
     1 AXI         1 GROUP             0       ****    0 ROOT    
