@<TRIPOS>MOLECULE
~{N}-methyl-2-[[3-[(~{E})-2-(2-pyridyl)vinyl]-1~{H}-indazol-6-yl]sulfanyl]benzamide
   46    49     0     0     0
SMALL
USER_CHARGES

@<TRIPOS>ATOM
      1 C1         -0.5755   -3.0907    3.5024 C.3       1 <0>         0.0802
      2 N1         -0.7609   -3.0963    2.0691 N.am      1 <0>        -0.5743
      3 C2         -1.5516   -2.1623    1.4188 C.2       1 <0>         0.6671
      4 O1         -2.1644   -1.2531    1.9723 O.2       1 <0>        -0.5832
      5 C3         -1.6595   -2.3172   -0.0276 C.ar      1 <0>        -0.1329
      6 C4         -2.1927   -3.5113   -0.5130 C.ar      1 <0>        -0.0936
      7 C5         -2.3193   -3.7106   -1.8878 C.ar      1 <0>        -0.1467
      8 C6         -1.9126   -2.7159   -2.7771 C.ar      1 <0>        -0.0974
      9 C7         -1.3794   -1.5219   -2.2916 C.ar      1 <0>        -0.1577
     10 C8         -1.2528   -1.3226   -0.9169 C.ar      1 <0>         0.0285
     11 S1         -0.5618    0.2240   -0.3504 S.3       1 <0>        -0.0863
     12 C9          0.8725   -0.3471    0.5479 C.ar      1 <0>        -0.0351
     13 C10         1.8575   -1.0770   -0.1202 C.ar      1 <0>        -0.1079
     14 C11         2.9942   -1.5392    0.5550 C.ar      1 <0>        -0.0803
     15 C12         3.1242   -1.2526    1.9242 C.ar      1 <0>        -0.1731
     16 C13         2.1285   -0.5238    2.5651 C.ar      1 <0>         0.0545
     17 C14         0.9878   -0.0537    1.9107 C.ar      1 <0>        -0.0798
     18 N2          2.5420   -0.4150    3.8654 N.pl3     1 <0>        -0.3859
     19 N3          3.7190   -1.0102    4.1207 N.2       1 <0>        -0.3947
     20 C15         4.0702   -1.5186    2.9374 C.2       1 <0>         0.3772
     21 C16         5.2721   -2.2471    2.7384 C.2       1 <0>        -0.1775
     22 C17         6.2213   -2.5307    3.6913 C.2       1 <0>        -0.1980
     23 C18         7.4594   -3.3037    3.4886 C.ar      1 <0>         0.4462
     24 C19         8.3270   -3.5111    4.5488 C.ar      1 <0>        -0.2368
     25 C20         9.4824   -4.2469    4.3098 C.ar      1 <0>        -0.0928
     26 C21         9.7311   -4.7458    3.0360 C.ar      1 <0>        -0.2453
     27 C22         8.8006   -4.4832    2.0435 C.ar      1 <0>         0.3986
     28 N4          7.6671   -3.7725    2.2377 N.ar      1 <0>        -0.6567
     29 H1          0.0880   -3.9198    3.7895 H         1 <0>         0.0431
     30 H2         -1.5497   -3.2120    3.9986 H         1 <0>         0.0431
     31 H3         -0.1237   -2.1361    3.8099 H         1 <0>         0.0431
     32 H4         -0.2652   -3.8613    1.4534 H         1 <0>         0.3101
     33 H5         -2.5131   -4.2949    0.1691 H         1 <0>         0.1410
     34 H6         -2.7340   -4.6407   -2.2659 H         1 <0>         0.1378
     35 H7         -2.0117   -2.8712   -3.8472 H         1 <0>         0.1360
     36 H8         -1.0686   -0.7600   -3.0024 H         1 <0>         0.1467
     37 H9          1.7598   -1.3008   -1.1806 H         1 <0>         0.1542
     38 H10         3.7515   -2.1056    0.0213 H         1 <0>         0.1450
     39 H11         0.2325    0.5123    2.4465 H         1 <0>         0.1523
     40 H12         1.9224    0.1255    4.5962 H         1 <0>         0.4864
     41 H13         5.4094   -2.5961    1.7043 H         1 <0>         0.1330
     42 H14         6.0916   -2.1683    4.7218 H         1 <0>         0.1617
     43 H15         8.1262   -3.1187    5.5406 H         1 <0>         0.1438
     44 H16        10.1874   -4.4325    5.1146 H         1 <0>         0.1387
     45 H17        10.6254   -5.3213    2.8270 H         1 <0>         0.1440
     46 H18         8.9483   -4.8486    1.0326 H         1 <0>         0.0235
@<TRIPOS>BOND
     1    1    2 1
     2    1   29 1
     3    1   30 1
     4    1   31 1
     5    2    3 am
     6    2   32 1
     7    3    4 2
     8    3    5 1
     9    5   10 ar
    10    5    6 ar
    11    6    7 ar
    12    6   33 1
    13    7    8 ar
    14    7   34 1
    15    8    9 ar
    16    8   35 1
    17    9   10 ar
    18    9   36 1
    19   10   11 1
    20   11   12 1
    21   12   17 ar
    22   12   13 ar
    23   13   14 ar
    24   13   37 1
    25   14   15 ar
    26   14   38 1
    27   15   20 1
    28   15   16 ar
    29   16   17 ar
    30   16   18 1
    31   17   39 1
    32   18   19 1
    33   18   40 1
    34   19   20 2
    35   20   21 1
    36   21   22 2
    37   21   41 1
    38   22   23 1
    39   22   42 1
    40   23   28 ar
    41   23   24 ar
    42   24   25 ar
    43   24   43 1
    44   25   26 ar
    45   25   44 1
    46   26   27 ar
    47   26   45 1
    48   27   28 ar
    49   27   46 1
@<TRIPOS>MOLECULE
~{N}-methyl-2-[[3-[(~{E})-2-(2-pyridyl)vinyl]-2~{H}-indazol-6-yl]sulfanyl]benzamide
   46    49     0     0     0
SMALL
USER_CHARGES

@<TRIPOS>ATOM
      1 C1         -0.5755   -3.0907    3.5024 C.3       1 <0>         0.0855
      2 N1         -0.7609   -3.0963    2.0691 N.am      1 <0>        -0.5813
      3 C2         -1.5516   -2.1623    1.4188 C.2       1 <0>         0.6688
      4 O1         -2.1644   -1.2531    1.9723 O.2       1 <0>        -0.5807
      5 C3         -1.6595   -2.3172   -0.0276 C.ar      1 <0>        -0.1174
      6 C4         -2.1927   -3.5113   -0.5130 C.ar      1 <0>        -0.1068
      7 C5         -2.3193   -3.7106   -1.8878 C.ar      1 <0>        -0.1366
      8 C6         -1.9126   -2.7159   -2.7771 C.ar      1 <0>        -0.1066
      9 C7         -1.3794   -1.5219   -2.2916 C.ar      1 <0>        -0.1346
     10 C8         -1.2528   -1.3226   -0.9169 C.ar      1 <0>         0.0227
     11 S1         -0.5618    0.2240   -0.3504 S.3       1 <0>        -0.1144
     12 C9          0.8725   -0.3471    0.5479 C.ar      1 <0>        -0.0287
     13 C10         1.8575   -1.0770   -0.1202 C.ar      1 <0>        -0.1119
     14 C11         2.9942   -1.5392    0.5550 C.ar      1 <0>        -0.0767
     15 C12         3.1242   -1.2526    1.9242 C.ar      1 <0>        -0.1711
     16 C13         2.1285   -0.5238    2.5651 C.ar      1 <0>         0.3400
     17 C14         0.9878   -0.0537    1.9107 C.ar      1 <0>        -0.1425
     18 N2          2.5420   -0.4150    3.8654 N.2       1 <0>        -0.5052
     19 N3          3.7190   -1.0102    4.1207 N.pl3     1 <0>         0.0495
     20 C15         4.0702   -1.5186    2.9374 C.2       1 <0>        -0.0980
     21 C16         5.2721   -2.2471    2.7384 C.2       1 <0>        -0.0748
     22 C17         6.2213   -2.5307    3.6913 C.2       1 <0>        -0.2234
     23 C18         7.4594   -3.3037    3.4886 C.ar      1 <0>         0.4456
     24 C19         8.3270   -3.5111    4.5488 C.ar      1 <0>        -0.2339
     25 C20         9.4824   -4.2469    4.3098 C.ar      1 <0>        -0.0917
     26 C21         9.7311   -4.7458    3.0360 C.ar      1 <0>        -0.2426
     27 C22         8.8006   -4.4832    2.0435 C.ar      1 <0>         0.4003
     28 N4          7.6671   -3.7725    2.2377 N.ar      1 <0>        -0.6587
     29 H1          0.0880   -3.9198    3.7895 H         1 <0>         0.0418
     30 H2         -1.5497   -3.2120    3.9986 H         1 <0>         0.0418
     31 H3         -0.1237   -2.1361    3.8099 H         1 <0>         0.0418
     32 H4         -0.2652   -3.8613    1.4534 H         1 <0>         0.3129
     33 H5         -2.5131   -4.2949    0.1691 H         1 <0>         0.1394
     34 H6         -2.7340   -4.6407   -2.2659 H         1 <0>         0.1370
     35 H7         -2.0117   -2.8712   -3.8472 H         1 <0>         0.1376
     36 H8         -1.0686   -0.7600   -3.0024 H         1 <0>         0.1495
     37 H9          1.7598   -1.3008   -1.1806 H         1 <0>         0.1525
     38 H10         3.7515   -2.1056    0.0213 H         1 <0>         0.1388
     39 H11         0.2325    0.5123    2.4465 H         1 <0>         0.1566
     40 H12         5.4094   -2.5961    1.7043 H         1 <0>         0.1498
     41 H13         6.0916   -2.1683    4.7218 H         1 <0>         0.1404
     42 H14         8.1262   -3.1187    5.5406 H         1 <0>         0.1453
     43 H15        10.1874   -4.4325    5.1146 H         1 <0>         0.1413
     44 H16        10.6254   -5.3213    2.8270 H         1 <0>         0.1460
     45 H17         8.9483   -4.8486    1.0326 H         1 <0>         0.0249
     46 H18         4.1412   -0.9811    5.1360 H         1 <0>         0.3276
@<TRIPOS>BOND
     1    1    2 1
     2    1   29 1
     3    1   30 1
     4    1   31 1
     5    2    3 am
     6    2   32 1
     7    3    4 2
     8    3    5 1
     9    5   10 ar
    10    5    6 ar
    11    6    7 ar
    12    6   33 1
    13    7    8 ar
    14    7   34 1
    15    8    9 ar
    16    8   35 1
    17    9   10 ar
    18    9   36 1
    19   10   11 1
    20   11   12 1
    21   12   17 ar
    22   12   13 ar
    23   13   14 ar
    24   13   37 1
    25   14   15 ar
    26   14   38 1
    27   15   20 2
    28   15   16 ar
    29   16   17 ar
    30   16   18 2
    31   17   39 1
    32   18   19 1
    33   19   20 1
    34   19   46 1
    35   20   21 1
    36   21   22 2
    37   21   40 1
    38   22   23 1
    39   22   41 1
    40   23   28 ar
    41   23   24 ar
    42   24   25 ar
    43   24   42 1
    44   25   26 ar
    45   25   43 1
    46   26   27 ar
    47   26   44 1
    48   27   28 ar
    49   27   45 1
@<TRIPOS>MOLECULE
~{N}-methyl-2-[[3-[(~{E})-2-pyridin-1-ium-2-ylvinyl]-1~{H}-indazol-6-yl]sulfanyl]benzamide
   47    50     0     0     0
SMALL
USER_CHARGES

@<TRIPOS>ATOM
      1 C1         -0.5755   -3.0907    3.5024 C.3       1 <0>         0.0816
      2 N1         -0.7609   -3.0963    2.0691 N.am      1 <0>        -0.5742
      3 C2         -1.5516   -2.1623    1.4188 C.2       1 <0>         0.6630
      4 O1         -2.1644   -1.2531    1.9723 O.2       1 <0>        -0.5813
      5 C3         -1.6595   -2.3172   -0.0276 C.ar      1 <0>        -0.1047
      6 C4         -2.1927   -3.5113   -0.5130 C.ar      1 <0>        -0.1038
      7 C5         -2.3193   -3.7106   -1.8878 C.ar      1 <0>        -0.1229
      8 C6         -1.9126   -2.7159   -2.7771 C.ar      1 <0>        -0.1082
      9 C7         -1.3794   -1.5219   -2.2916 C.ar      1 <0>        -0.1394
     10 C8         -1.2528   -1.3226   -0.9169 C.ar      1 <0>         0.0056
     11 S1         -0.5618    0.2240   -0.3504 S.3       1 <0>        -0.0689
     12 C9          0.8725   -0.3471    0.5479 C.ar      1 <0>        -0.0152
     13 C10         1.8575   -1.0770   -0.1202 C.ar      1 <0>        -0.0872
     14 C11         2.9942   -1.5392    0.5550 C.ar      1 <0>        -0.0949
     15 C12         3.1242   -1.2526    1.9242 C.ar      1 <0>        -0.1591
     16 C13         2.1285   -0.5238    2.5651 C.ar      1 <0>         0.0472
     17 C14         0.9878   -0.0537    1.9107 C.ar      1 <0>        -0.0731
     18 N2          2.5420   -0.4150    3.8654 N.pl3     1 <0>        -0.3364
     19 N3          3.7190   -1.0102    4.1207 N.2       1 <0>        -0.3588
     20 C15         4.0702   -1.5186    2.9374 C.2       1 <0>         0.2890
     21 C16         5.2721   -2.2471    2.7384 C.2       1 <0>         0.0063
     22 C17         6.2213   -2.5307    3.6913 C.2       1 <0>        -0.2625
     23 C18         7.4594   -3.3037    3.4886 C.ar      1 <0>         0.1192
     24 C19         8.3270   -3.5111    4.5488 C.ar      1 <0>        -0.1686
     25 C20         9.4824   -4.2469    4.3098 C.ar      1 <0>        -0.0010
     26 C21         9.7311   -4.7458    3.0360 C.ar      1 <0>        -0.1586
     27 C22         8.8006   -4.4832    2.0435 C.ar      1 <0>        -0.0202
     28 N4          7.6671   -3.7725    2.2377 N.ar      1 <0>        -0.1126
     29 H1          0.0880   -3.9198    3.7895 H         1 <0>         0.0475
     30 H2         -1.5497   -3.2120    3.9986 H         1 <0>         0.0475
     31 H3         -0.1237   -2.1361    3.8099 H         1 <0>         0.0475
     32 H4         -0.2652   -3.8613    1.4534 H         1 <0>         0.3160
     33 H5         -2.5131   -4.2949    0.1691 H         1 <0>         0.1485
     34 H6         -2.7340   -4.6407   -2.2659 H         1 <0>         0.1456
     35 H7         -2.0117   -2.8712   -3.8472 H         1 <0>         0.1390
     36 H8         -1.0686   -0.7600   -3.0024 H         1 <0>         0.1360
     37 H9          1.7598   -1.3008   -1.1806 H         1 <0>         0.1678
     38 H10         3.7515   -2.1056    0.0213 H         1 <0>         0.1418
     39 H11         0.2325    0.5123    2.4465 H         1 <0>         0.1656
     40 H12         1.9224    0.1255    4.5962 H         1 <0>         0.5017
     41 H13         5.4094   -2.5961    1.7043 H         1 <0>         0.1443
     42 H14         6.0916   -2.1683    4.7218 H         1 <0>         0.1734
     43 H15         8.1262   -3.1187    5.5406 H         1 <0>         0.1901
     44 H16        10.1874   -4.4325    5.1146 H         1 <0>         0.1875
     45 H17        10.6254   -5.3213    2.8270 H         1 <0>         0.1968
     46 H18         8.9483   -4.8486    1.0326 H         1 <0>         0.2051
     47 H19         6.9327   -3.5680    1.4447 H         1 <0>         0.3380
@<TRIPOS>BOND
     1    1    2 1
     2    1   29 1
     3    1   30 1
     4    1   31 1
     5    2    3 am
     6    2   32 1
     7    3    4 2
     8    3    5 1
     9    5   10 ar
    10    5    6 ar
    11    6    7 ar
    12    6   33 1
    13    7    8 ar
    14    7   34 1
    15    8    9 ar
    16    8   35 1
    17    9   10 ar
    18    9   36 1
    19   10   11 1
    20   11   12 1
    21   12   17 ar
    22   12   13 ar
    23   13   14 ar
    24   13   37 1
    25   14   15 ar
    26   14   38 1
    27   15   20 1
    28   15   16 ar
    29   16   17 ar
    30   16   18 1
    31   17   39 1
    32   18   19 1
    33   18   40 1
    34   19   20 2
    35   20   21 1
    36   21   22 2
    37   21   41 1
    38   22   23 1
    39   22   42 1
    40   23   28 ar
    41   23   24 ar
    42   24   25 ar
    43   24   43 1
    44   25   26 ar
    45   25   44 1
    46   26   27 ar
    47   26   45 1
    48   27   28 ar
    49   27   46 1
    50   28   47 1
