~{N}-methyl-2-[[3-[(~{E})-2-(2-pyridyl)vinyl]-1~{H}-indazol-6-yl]sulfanyl]benzamide
                    3D
 Structure written by MMmdl.
 46 49  0  0  1  0            999 V2000
   -0.5755   -3.0907    3.5024 C   0  0  0  0  0  0
   -0.7609   -3.0963    2.0691 N   0  0  0  0  0  0
   -1.5516   -2.1623    1.4188 C   0  0  0  0  0  0
   -2.1644   -1.2531    1.9723 O   0  0  0  0  0  0
   -1.6595   -2.3172   -0.0276 C   0  0  0  0  0  0
   -2.1927   -3.5113   -0.5130 C   0  0  0  0  0  0
   -2.3193   -3.7106   -1.8878 C   0  0  0  0  0  0
   -1.9126   -2.7159   -2.7771 C   0  0  0  0  0  0
   -1.3794   -1.5219   -2.2916 C   0  0  0  0  0  0
   -1.2528   -1.3226   -0.9169 C   0  0  0  0  0  0
   -0.5618    0.2240   -0.3504 S   0  0  0  0  0  0
    0.8725   -0.3471    0.5479 C   0  0  0  0  0  0
    1.8575   -1.0770   -0.1202 C   0  0  0  0  0  0
    2.9942   -1.5392    0.5550 C   0  0  0  0  0  0
    3.1242   -1.2526    1.9242 C   0  0  0  0  0  0
    2.1285   -0.5238    2.5651 C   0  0  0  0  0  0
    0.9878   -0.0537    1.9107 C   0  0  0  0  0  0
    2.5420   -0.4150    3.8654 N   0  0  0  0  0  0
    3.7190   -1.0102    4.1207 N   0  0  0  0  0  0
    4.0702   -1.5186    2.9374 C   0  0  0  0  0  0
    5.2721   -2.2471    2.7384 C   0  0  0  0  0  0
    6.2213   -2.5307    3.6913 C   0  0  0  0  0  0
    7.4594   -3.3037    3.4886 C   0  0  0  0  0  0
    8.3270   -3.5111    4.5488 C   0  0  0  0  0  0
    9.4824   -4.2469    4.3098 C   0  0  0  0  0  0
    9.7311   -4.7458    3.0360 C   0  0  0  0  0  0
    8.8006   -4.4832    2.0435 C   0  0  0  0  0  0
    7.6671   -3.7725    2.2377 N   0  0  0  0  0  0
    0.0880   -3.9198    3.7895 H   0  0  0  0  0  0
   -1.5497   -3.2120    3.9986 H   0  0  0  0  0  0
   -0.1237   -2.1361    3.8099 H   0  0  0  0  0  0
   -0.2652   -3.8613    1.4534 H   0  0  0  0  0  0
   -2.5131   -4.2949    0.1691 H   0  0  0  0  0  0
   -2.7340   -4.6407   -2.2659 H   0  0  0  0  0  0
   -2.0117   -2.8712   -3.8472 H   0  0  0  0  0  0
   -1.0686   -0.7600   -3.0024 H   0  0  0  0  0  0
    1.7598   -1.3008   -1.1806 H   0  0  0  0  0  0
    3.7515   -2.1056    0.0213 H   0  0  0  0  0  0
    0.2325    0.5123    2.4465 H   0  0  0  0  0  0
    1.9224    0.1255    4.5962 H   0  0  0  0  0  0
    5.4094   -2.5961    1.7043 H   0  0  0  0  0  0
    6.0916   -2.1683    4.7218 H   0  0  0  0  0  0
    8.1262   -3.1187    5.5406 H   0  0  0  0  0  0
   10.1874   -4.4325    5.1146 H   0  0  0  0  0  0
   10.6254   -5.3213    2.8270 H   0  0  0  0  0  0
    8.9483   -4.8486    1.0326 H   0  0  0  0  0  0
  1  2  1  0  0  0
  1 29  1  0  0  0
  1 30  1  0  0  0
  1 31  1  0  0  0
  2  3  1  0  0  0
  2 32  1  0  0  0
  3  4  2  0  0  0
  3  5  1  0  0  0
  5 10  2  0  0  0
  5  6  1  0  0  0
  6  7  2  0  0  0
  6 33  1  0  0  0
  7  8  1  0  0  0
  7 34  1  0  0  0
  8  9  2  0  0  0
  8 35  1  0  0  0
  9 10  1  0  0  0
  9 36  1  0  0  0
 10 11  1  0  0  0
 11 12  1  0  0  0
 12 17  2  0  0  0
 12 13  1  0  0  0
 13 14  2  0  0  0
 13 37  1  0  0  0
 14 15  1  0  0  0
 14 38  1  0  0  0
 15 20  1  0  0  0
 15 16  2  0  0  0
 16 17  1  0  0  0
 16 18  1  0  0  0
 17 39  1  0  0  0
 18 19  1  0  0  0
 18 40  1  0  0  0
 19 20  2  0  0  0
 20 21  1  0  0  0
 21 22  2  0  0  0
 21 41  1  0  0  0
 22 23  1  0  0  0
 22 42  1  0  0  0
 23 28  2  0  0  0
 23 24  1  0  0  0
 24 25  2  0  0  0
 24 43  1  0  0  0
 25 26  1  0  0  0
 25 44  1  0  0  0
 26 27  2  0  0  0
 26 45  1  0  0  0
 27 28  1  0  0  0
 27 46  1  0  0  0
M  END
> <s_m_source_file>
/cbio/jclab/home/andrrizzi/epik_inhibitors/output/Axitinib/Axitinib-input.mol2

> <i_m_source_file_index>
1

> <r_epik_Ionization_Penalty>
  0.0018

> <r_epik_Ionization_Penalty_Charging>
  0.0000

> <r_epik_Ionization_Penalty_Neutral>
  0.0018

> <r_epik_State_Penalty>
  0.0012

> <i_epik_Tot_Q>
0

$$$$
