@<TRIPOS>MOLECULE
EUI
52   55    1
SMALL
USER_CHARGES


@<TRIPOS>ATOM
      1 O20       -31.1580   12.8710   -6.2920 O.2       1 EUI         0.0000 
      2 C18       -30.6740   12.7290   -5.1760 C.2       1 EUI         0.0000 
      3 C15       -31.1960   11.7010   -4.2240 C.ar      1 EUI         0.0000 
      4 C14       -30.2890   11.0380   -3.3310 C.ar      1 EUI         0.0000 
      5 C13       -30.7470   10.0440   -2.4520 C.ar      1 EUI         0.0000 
      6 C12       -32.1190    9.7390   -2.5130 C.ar      1 EUI         0.0000 
      7 F17       -32.7780    8.8720   -1.7900 F         1 EUI         0.0000 
      8 C11       -32.9780   10.3550   -3.3910 C.ar      1 EUI         0.0000 
      9 F16       -34.2420   10.0390   -3.3390 F         1 EUI         0.0000 
     10 C10       -32.5580   11.3320   -4.2630 C.ar      1 EUI         0.0000 
     11 N9        -33.5470   11.8970   -5.0440 N.pl3     1 EUI         0.0000 
     12 C5        -34.8100   12.4390   -4.7530 C.ar      1 EUI         0.0000 
     13 C4        -35.3320   12.4230   -3.4350 C.ar      1 EUI         0.0000 
     14 C3        -36.6090   12.9830   -3.1520 C.ar      1 EUI         0.0000 
     15 C2        -37.3470   13.5770   -4.1780 C.ar      1 EUI         0.0000 
     16 I8        -39.3310   14.4550   -3.8890 I         1 EUI         0.0000 
     17 C6        -35.5700   13.0360   -5.7550 C.ar      1 EUI         0.0000 
     18 F7        -35.1060   13.0620   -7.0100 F         1 EUI         0.0000 
     19 C1        -36.8320   13.5950   -5.4590 C.ar      1 EUI         0.0000 
     20 N19       -29.6500   13.5370   -4.8420 N.am      1 EUI         0.0000 
     21 C23       -28.9250   13.6760   -3.5900 C.3       1 EUI         0.0000 
     22 C22       -28.2250   14.8240   -4.4330 C.3       1 EUI         0.0000 
     23 C21       -29.0660   14.5390   -5.7280 C.3       1 EUI         0.0000 
     24 O24       -28.5980   16.1420   -4.0240 O.3       1 EUI         0.0000 
     25 C25       -26.7130   14.7600   -4.6300 C.3       1 EUI         0.0000 
     26 C30       -26.1890   13.3010   -4.7850 C.3       1 EUI         0.0000 
     27 C29       -24.6570   13.3010   -4.6250 C.3       1 EUI         0.0000 
     28 C28       -24.2860   13.7990   -3.2030 C.3       1 EUI         0.0000 
     29 C27       -24.8170   15.2450   -3.0510 C.3       1 EUI         0.0000 
     30 N26       -26.2470   15.4030   -3.3920 N.4       1 EUI         0.0000 
     31 H14       -29.2430   11.3070   -3.3350 H         1 EUI         0.0000 
     32 H13       -30.0820    9.5410   -1.7660 H         1 EUI         0.0000 
     33 H9        -33.4066   11.9838   -6.1315 H         1 EUI         0.0000 
     34 H4        -34.7540   11.9810   -2.6370 H         1 EUI         0.0000 
     35 H3        -37.0060   12.9490   -2.1480 H         1 EUI         0.0000 
     36 H1        -37.4080   14.0470   -6.2530 H         1 EUI         0.0000 
     37 H231      -29.6324   13.9097   -2.7807 H         1 EUI         0.0000 
     38 H232      -28.4043   12.7344   -3.3613 H         1 EUI         0.0000 
     39 H211      -28.6191   14.0407   -6.6009 H         1 EUI         0.0000 
     40 H212      -29.8503   15.2333   -6.0638 H         1 EUI         0.0000 
     41 H24       -28.1746   17.0177   -4.5376 H         1 EUI         0.0000 
     42 H25       -26.3481   15.2857   -5.5247 H         1 EUI         0.0000 
     43 H301      -26.6435   12.6641   -4.0118 H         1 EUI         0.0000 
     44 H302      -26.4588   12.9183   -5.7804 H         1 EUI         0.0000 
     45 H26       -26.4177   16.4878   -3.4556 H         1 EUI         0.0000 
     46 H291      -24.2734   12.2800   -4.7678 H         1 EUI         0.0000 
     47 H292      -24.2099   13.9690   -5.3759 H         1 EUI         0.0000 
     48 H281      -24.7497   13.1425   -2.4520 H         1 EUI         0.0000 
     49 H282      -23.1929   13.7803   -3.0815 H         1 EUI         0.0000 
     50 H271      -24.6953   15.5725   -2.0080 H         1 EUI         0.0000 
     51 H272      -24.2506   15.9153   -3.7142 H         1 EUI         0.0000 
     52 H52       -26.8023   14.9941   -2.5350 H         1 EUI         0.0000 
@<TRIPOS>BOND
     1    1    2 2    
     2    2    3 1    
     3    2   20 am   BACKBONE|DICT|INTERRES
     4    3    4 ar   
     5    3   10 ar   
     6    4    5 ar   
     7    4   31 1    
     8    5    6 ar   
     9    5   32 1    
    10    6    7 1    
    11    6    8 ar   
    12    8    9 1    
    13    8   10 ar   
    14   10   11 1    
    15   11   12 1    
    16   11   33 1    
    17   12   13 ar   
    18   12   17 ar   
    19   13   14 ar   
    20   13   34 1    
    21   14   15 ar   
    22   14   35 1    
    23   15   16 1    
    24   15   19 ar   
    25   17   18 1    
    26   17   19 ar   
    27   19   36 1    
    28   20   21 1    
    29   20   23 1    
    30   21   22 1    
    31   21   37 1    
    32   21   38 1    
    33   22   23 1    
    34   22   24 1    
    35   22   25 1    
    36   23   39 1    
    37   23   40 1    
    38   24   41 1    
    39   25   26 1    
    40   25   30 1    
    41   25   42 1    
    42   26   27 1    
    43   26   43 1    
    44   26   44 1    
    45   27   28 1    
    46   27   46 1    
    47   27   47 1    
    48   28   29 1    
    49   28   48 1    
    50   28   49 1    
    51   29   30 1    
    52   29   50 1    
    53   29   51 1    
    54   30   45 1    
    55   30   52 1    
@<TRIPOS>SUBSTRUCTURE
     1 EUI         1 GROUP             0       ****    0 ROOT    
@<TRIPOS>MOLECULE
EUI
51   54    1
SMALL
USER_CHARGES


@<TRIPOS>ATOM
      1 O20       -31.1580   12.8710   -6.2920 O.2       1 EUI         0.0000 
      2 C18       -30.6740   12.7290   -5.1760 C.2       1 EUI         0.0000 
      3 C15       -31.1960   11.7010   -4.2240 C.ar      1 EUI         0.0000 
      4 C14       -30.2890   11.0380   -3.3310 C.ar      1 EUI         0.0000 
      5 C13       -30.7470   10.0440   -2.4520 C.ar      1 EUI         0.0000 
      6 C12       -32.1190    9.7390   -2.5130 C.ar      1 EUI         0.0000 
      7 F17       -32.7780    8.8720   -1.7900 F         1 EUI         0.0000 
      8 C11       -32.9780   10.3550   -3.3910 C.ar      1 EUI         0.0000 
      9 F16       -34.2420   10.0390   -3.3390 F         1 EUI         0.0000 
     10 C10       -32.5580   11.3320   -4.2630 C.ar      1 EUI         0.0000 
     11 N9        -33.5470   11.8970   -5.0440 N.pl3     1 EUI         0.0000 
     12 C5        -34.8100   12.4390   -4.7530 C.ar      1 EUI         0.0000 
     13 C4        -35.3320   12.4230   -3.4350 C.ar      1 EUI         0.0000 
     14 C3        -36.6090   12.9830   -3.1520 C.ar      1 EUI         0.0000 
     15 C2        -37.3470   13.5770   -4.1780 C.ar      1 EUI         0.0000 
     16 I8        -39.3310   14.4550   -3.8890 I         1 EUI         0.0000 
     17 C6        -35.5700   13.0360   -5.7550 C.ar      1 EUI         0.0000 
     18 F7        -35.1060   13.0620   -7.0100 F         1 EUI         0.0000 
     19 C1        -36.8320   13.5950   -5.4590 C.ar      1 EUI         0.0000 
     20 N19       -29.6500   13.5370   -4.8420 N.am      1 EUI         0.0000 
     21 C23       -28.9250   13.6760   -3.5900 C.3       1 EUI         0.0000 
     22 C22       -28.2250   14.8240   -4.4330 C.3       1 EUI         0.0000 
     23 C21       -29.0660   14.5390   -5.7280 C.3       1 EUI         0.0000 
     24 O24       -28.5980   16.1420   -4.0240 O.3       1 EUI         0.0000 
     25 C25       -26.7130   14.7600   -4.6300 C.3       1 EUI         0.0000 
     26 C30       -26.1890   13.3010   -4.7850 C.3       1 EUI         0.0000 
     27 C29       -24.6570   13.3010   -4.6250 C.3       1 EUI         0.0000 
     28 C28       -24.2860   13.7990   -3.2030 C.3       1 EUI         0.0000 
     29 C27       -24.8170   15.2450   -3.0510 C.3       1 EUI         0.0000 
     30 N26       -26.2470   15.4030   -3.3920 N.3       1 EUI         0.0000 
     31 H14       -29.2430   11.3070   -3.3350 H         1 EUI         0.0000 
     32 H13       -30.0820    9.5410   -1.7660 H         1 EUI         0.0000 
     33 H9        -33.4066   11.9838   -6.1315 H         1 EUI         0.0000 
     34 H4        -34.7540   11.9810   -2.6370 H         1 EUI         0.0000 
     35 H3        -37.0060   12.9490   -2.1480 H         1 EUI         0.0000 
     36 H1        -37.4080   14.0470   -6.2530 H         1 EUI         0.0000 
     37 H231      -29.6324   13.9097   -2.7807 H         1 EUI         0.0000 
     38 H232      -28.4043   12.7344   -3.3613 H         1 EUI         0.0000 
     39 H211      -28.6191   14.0407   -6.6009 H         1 EUI         0.0000 
     40 H212      -29.8503   15.2333   -6.0638 H         1 EUI         0.0000 
     41 H24       -28.1746   17.0177   -4.5376 H         1 EUI         0.0000 
     42 H25       -26.3481   15.2857   -5.5247 H         1 EUI         0.0000 
     43 H301      -26.6435   12.6641   -4.0118 H         1 EUI         0.0000 
     44 H302      -26.4588   12.9183   -5.7804 H         1 EUI         0.0000 
     45 H26       -26.4177   16.4878   -3.4556 H         1 EUI         0.0000 
     46 H291      -24.2734   12.2800   -4.7678 H         1 EUI         0.0000 
     47 H292      -24.2099   13.9690   -5.3759 H         1 EUI         0.0000 
     48 H281      -24.7497   13.1425   -2.4520 H         1 EUI         0.0000 
     49 H282      -23.1929   13.7803   -3.0815 H         1 EUI         0.0000 
     50 H271      -24.6953   15.5725   -2.0080 H         1 EUI         0.0000 
     51 H272      -24.2506   15.9153   -3.7142 H         1 EUI         0.0000 
@<TRIPOS>BOND
     1    1    2 2    
     2    2    3 1    
     3    2   20 am   BACKBONE|DICT|INTERRES
     4    3    4 ar   
     5    3   10 ar   
     6    4    5 ar   
     7    4   31 1    
     8    5    6 ar   
     9    5   32 1    
    10    6    7 1    
    11    6    8 ar   
    12    8    9 1    
    13    8   10 ar   
    14   10   11 1    
    15   11   12 1    
    16   11   33 1    
    17   12   13 ar   
    18   12   17 ar   
    19   13   14 ar   
    20   13   34 1    
    21   14   15 ar   
    22   14   35 1    
    23   15   16 1    
    24   15   19 ar   
    25   17   18 1    
    26   17   19 ar   
    27   19   36 1    
    28   20   21 1    
    29   20   23 1    
    30   21   22 1    
    31   21   37 1    
    32   21   38 1    
    33   22   23 1    
    34   22   24 1    
    35   22   25 1    
    36   23   39 1    
    37   23   40 1    
    38   24   41 1    
    39   25   26 1    
    40   25   30 1    
    41   25   42 1    
    42   26   27 1    
    43   26   43 1    
    44   26   44 1    
    45   27   28 1    
    46   27   46 1    
    47   27   47 1    
    48   28   29 1    
    49   28   48 1    
    50   28   49 1    
    51   29   30 1    
    52   29   50 1    
    53   29   51 1    
    54   30   45 1    
@<TRIPOS>SUBSTRUCTURE
     1 EUI         1 GROUP             0       ****    0 ROOT    
@<TRIPOS>MOLECULE
EUI
51   54    1
SMALL
USER_CHARGES


@<TRIPOS>ATOM
      1 O20       -31.1580   12.8710   -6.2920 O.2       1 EUI         0.0000 
      2 C18       -30.6740   12.7290   -5.1760 C.2       1 EUI         0.0000 
      3 C15       -31.1960   11.7010   -4.2240 C.ar      1 EUI         0.0000 
      4 C14       -30.2890   11.0380   -3.3310 C.ar      1 EUI         0.0000 
      5 C13       -30.7470   10.0440   -2.4520 C.ar      1 EUI         0.0000 
      6 C12       -32.1190    9.7390   -2.5130 C.ar      1 EUI         0.0000 
      7 F17       -32.7780    8.8720   -1.7900 F         1 EUI         0.0000 
      8 C11       -32.9780   10.3550   -3.3910 C.ar      1 EUI         0.0000 
      9 F16       -34.2420   10.0390   -3.3390 F         1 EUI         0.0000 
     10 C10       -32.5580   11.3320   -4.2630 C.ar      1 EUI         0.0000 
     11 N9        -33.5470   11.8970   -5.0440 N.pl3     1 EUI         0.0000 
     12 C5        -34.8100   12.4390   -4.7530 C.ar      1 EUI         0.0000 
     13 C4        -35.3320   12.4230   -3.4350 C.ar      1 EUI         0.0000 
     14 C3        -36.6090   12.9830   -3.1520 C.ar      1 EUI         0.0000 
     15 C2        -37.3470   13.5770   -4.1780 C.ar      1 EUI         0.0000 
     16 I8        -39.3310   14.4550   -3.8890 I         1 EUI         0.0000 
     17 C6        -35.5700   13.0360   -5.7550 C.ar      1 EUI         0.0000 
     18 F7        -35.1060   13.0620   -7.0100 F         1 EUI         0.0000 
     19 C1        -36.8320   13.5950   -5.4590 C.ar      1 EUI         0.0000 
     20 N19       -29.6500   13.5370   -4.8420 N.am      1 EUI         0.0000 
     21 C23       -28.9250   13.6760   -3.5900 C.3       1 EUI         0.0000 
     22 C22       -28.2250   14.8240   -4.4330 C.3       1 EUI         0.0000 
     23 C21       -29.0660   14.5390   -5.7280 C.3       1 EUI         0.0000 
     24 O24       -28.5980   16.1420   -4.0240 O.co2     1 EUI         0.0000 
     25 C25       -26.7130   14.7600   -4.6300 C.3       1 EUI         0.0000 
     26 C30       -26.1890   13.3010   -4.7850 C.3       1 EUI         0.0000 
     27 C29       -24.6570   13.3010   -4.6250 C.3       1 EUI         0.0000 
     28 C28       -24.2860   13.7990   -3.2030 C.3       1 EUI         0.0000 
     29 C27       -24.8170   15.2450   -3.0510 C.3       1 EUI         0.0000 
     30 N26       -26.2470   15.4030   -3.3920 N.4       1 EUI         0.0000 
     31 H14       -29.2430   11.3070   -3.3350 H         1 EUI         0.0000 
     32 H13       -30.0820    9.5410   -1.7660 H         1 EUI         0.0000 
     33 H9        -33.4066   11.9838   -6.1315 H         1 EUI         0.0000 
     34 H4        -34.7540   11.9810   -2.6370 H         1 EUI         0.0000 
     35 H3        -37.0060   12.9490   -2.1480 H         1 EUI         0.0000 
     36 H1        -37.4080   14.0470   -6.2530 H         1 EUI         0.0000 
     37 H231      -29.6324   13.9097   -2.7807 H         1 EUI         0.0000 
     38 H232      -28.4043   12.7344   -3.3613 H         1 EUI         0.0000 
     39 H211      -28.6191   14.0407   -6.6009 H         1 EUI         0.0000 
     40 H212      -29.8503   15.2333   -6.0638 H         1 EUI         0.0000 
     41 H25       -26.3481   15.2857   -5.5247 H         1 EUI         0.0000 
     42 H301      -26.6435   12.6641   -4.0118 H         1 EUI         0.0000 
     43 H302      -26.4588   12.9183   -5.7804 H         1 EUI         0.0000 
     44 H26       -26.4177   16.4878   -3.4556 H         1 EUI         0.0000 
     45 H291      -24.2734   12.2800   -4.7678 H         1 EUI         0.0000 
     46 H292      -24.2099   13.9690   -5.3759 H         1 EUI         0.0000 
     47 H281      -24.7497   13.1425   -2.4520 H         1 EUI         0.0000 
     48 H282      -23.1929   13.7803   -3.0815 H         1 EUI         0.0000 
     49 H271      -24.6953   15.5725   -2.0080 H         1 EUI         0.0000 
     50 H272      -24.2506   15.9153   -3.7142 H         1 EUI         0.0000 
     51 H51       -26.8023   14.9941   -2.5350 H         1 EUI         0.0000 
@<TRIPOS>BOND
     1    1    2 2    
     2    2    3 1    
     3    2   20 am   BACKBONE|DICT|INTERRES
     4    3    4 ar   
     5    3   10 ar   
     6    4    5 ar   
     7    4   31 1    
     8    5    6 ar   
     9    5   32 1    
    10    6    7 1    
    11    6    8 ar   
    12    8    9 1    
    13    8   10 ar   
    14   10   11 1    
    15   11   12 1    
    16   11   33 1    
    17   12   13 ar   
    18   12   17 ar   
    19   13   14 ar   
    20   13   34 1    
    21   14   15 ar   
    22   14   35 1    
    23   15   16 1    
    24   15   19 ar   
    25   17   18 1    
    26   17   19 ar   
    27   19   36 1    
    28   20   21 1    
    29   20   23 1    
    30   21   22 1    
    31   21   37 1    
    32   21   38 1    
    33   22   23 1    
    34   22   24 1    
    35   22   25 1    
    36   23   39 1    
    37   23   40 1    
    38   25   26 1    
    39   25   30 1    
    40   25   41 1    
    41   26   27 1    
    42   26   42 1    
    43   26   43 1    
    44   27   28 1    
    45   27   45 1    
    46   27   46 1    
    47   28   29 1    
    48   28   47 1    
    49   28   48 1    
    50   29   30 1    
    51   29   49 1    
    52   29   50 1    
    53   30   44 1    
    54   30   51 1    
@<TRIPOS>SUBSTRUCTURE
     1 EUI         1 GROUP             0       ****    0 ROOT    
