STI
                    3D
 Structure written by MMmdl.
 71 75  0  0  1  0            999 V2000
   16.3560  100.4060   50.6140 C   0  0  0  0  0  0
   15.2180  100.0120   51.4140 C   0  0  0  0  0  0
   15.0890  100.4530   52.7980 C   0  0  3  0  0  0
   16.1380  101.2980   53.3390 C   0  0  0  0  0  0
   17.2200  101.6600   52.5430 N   0  0  0  0  0  0
   17.3560  101.2430   51.2150 C   0  0  0  0  0  0
   13.9280  100.0780   53.6730 C   0  0  3  0  0  0
   12.7230   99.4700   53.1730 C   0  0  0  0  0  0
   11.7040   99.1720   54.1140 C   0  0  0  0  0  0
   11.8810   99.4640   55.4560 N   0  3  0  0  0  0
   13.0530  100.0500   55.9070 C   0  0  3  0  0  0
   14.0460  100.3450   55.0230 N   0  3  0  0  0  0
   13.2630  100.3620   57.2530 N   0  0  0  0  0  0
   12.3020  100.1090   58.2460 C   0  0  3  0  0  0
   11.1950  101.0400   58.4880 C   0  0  3  0  0  0
   10.2510  100.7220   59.5240 C   0  0  0  0  0  0
   10.3860   99.5200   60.3090 C   0  0  0  0  0  0
   11.4560   98.6100   60.0860 C   0  0  3  0  0  0
   12.4240   98.9210   59.0320 C   0  0  0  0  0  0
   11.5160   97.4360   60.9230 N   0  0  0  0  0  0
   12.4460   96.4150   60.9100 C   0  0  3  0  0  0
   12.4720   95.4420   62.0420 C   0  0  3  0  0  0
   13.6890   94.6960   62.3640 C   0  0  0  0  0  0
   13.6820   93.7490   63.4490 C   0  0  0  0  0  0
   12.4630   93.5460   64.2140 C   0  0  3  0  0  0
   11.2740   94.3010   63.8790 C   0  0  0  0  0  0
   11.2720   95.2300   62.8170 C   0  0  0  0  0  0
   12.3710   92.5420   65.3680 C   0  0  0  0  0  0
   11.2300   91.5790   65.3640 N   0  0  0  0  0  0
   11.2140   90.7780   64.0930 C   0  0  0  0  0  0
   10.0310   89.7760   64.0670 C   0  0  0  0  0  0
   10.0810   88.8580   65.2780 N   0  3  0  0  0  0
    8.9850   87.8750   65.3060 C   0  0  0  0  0  0
   10.0700   89.6590   66.5720 C   0  0  0  0  0  0
   11.2730   90.6520   66.5740 C   0  0  0  0  0  0
   13.2580   96.2310   60.0240 O   0  0  0  0  0  0
   10.9860  102.3510   57.6940 C   0  0  0  0  0  0
   16.4590  100.0740   49.5660 H   0  0  0  0  0  0
   14.4410   99.3690   50.9640 H   0  0  0  0  0  0
   16.1120  101.6720   54.3760 H   0  0  0  0  0  0
   18.2430  101.5700   50.6470 H   0  0  0  0  0  0
   12.5840   99.2390   52.1030 H   0  0  0  0  0  0
   10.7560   98.7040   53.7960 H   0  0  0  0  0  0
   14.2099  100.8239   57.5693 H   0  0  0  0  0  0
    9.4110  101.4100   59.7190 H   0  0  0  0  0  0
    9.6520   99.2900   61.1000 H   0  0  0  0  0  0
   13.2680   98.2410   58.8240 H   0  0  0  0  0  0
   10.7496   97.2709   61.6947 H   0  0  0  0  0  0
   14.6160   94.8480   61.7860 H   0  0  0  0  0  0
   14.5990   93.1860   63.6910 H   0  0  0  0  0  0
   10.3400   94.1640   64.4500 H   0  0  0  0  0  0
   10.3440   95.7830   62.5950 H   0  0  0  0  0  0
   13.2755   91.9162   65.3825 H   0  0  0  0  0  0
   12.2856   93.0852   66.3207 H   0  0  0  0  0  0
   11.1140   91.4567   63.2331 H   0  0  0  0  0  0
   12.1524   90.2108   64.0052 H   0  0  0  0  0  0
    9.0808   90.3301   64.0787 H   0  0  0  0  0  0
   10.0879   89.1651   63.1540 H   0  0  0  0  0  0
    9.0798   87.2456   66.2031 H   0  0  0  0  0  0
    9.0365   87.2427   64.4074 H   0  0  0  0  0  0
    8.0199   88.4024   65.3284 H   0  0  0  0  0  0
    9.1279   90.2218   66.6468 H   0  0  0  0  0  0
   10.1567   88.9738   67.4281 H   0  0  0  0  0  0
   12.2064   90.0701   66.5571 H   0  0  0  0  0  0
   11.2306   91.2504   67.4960 H   0  0  0  0  0  0
   10.0887  102.8665   58.0670 H   0  0  0  0  0  0
   10.8574  102.1168   56.6269 H   0  0  0  0  0  0
   11.8633  103.0019   57.8234 H   0  0  0  0  0  0
   14.9632  100.8099   55.4136 H   0  0  0  0  0  0
   11.0856   99.2307   56.1792 H   0  0  0  0  0  0
   11.0061   88.2695   65.1892 H   0  0  0  0  0  0
  1  2  1  0  0  0
  1  6  1  0  0  0
  1 38  1  0  0  0
  2  3  1  0  0  0
  2 39  1  0  0  0
  3  4  1  0  0  0
  3  7  1  0  0  0
  4  5  1  0  0  0
  4 40  1  0  0  0
  5  6  1  0  0  0
  6 41  1  0  0  0
  7  8  1  0  0  0
  7 12  1  0  0  0
  8  9  1  0  0  0
  8 42  1  0  0  0
  9 10  1  0  0  0
  9 43  1  0  0  0
 10 11  1  0  0  0
 10 70  1  0  0  0
 11 12  1  0  0  0
 11 13  1  0  0  0
 12 69  1  0  0  0
 13 14  1  0  0  0
 13 44  1  0  0  0
 14 15  1  0  0  0
 14 19  1  0  0  0
 15 16  1  0  0  0
 15 37  1  0  0  0
 16 17  1  0  0  0
 16 45  1  0  0  0
 17 18  1  0  0  0
 17 46  1  0  0  0
 18 19  1  0  0  0
 18 20  1  0  0  0
 19 47  1  0  0  0
 20 21  1  0  0  0
 20 48  1  0  0  0
 21 22  1  0  0  0
 21 36  1  0  0  0
 22 23  1  0  0  0
 22 27  1  0  0  0
 23 24  1  0  0  0
 23 49  1  0  0  0
 24 25  1  0  0  0
 24 50  1  0  0  0
 25 26  1  0  0  0
 25 28  1  0  0  0
 26 27  1  0  0  0
 26 51  1  0  0  0
 27 52  1  0  0  0
 28 29  1  0  0  0
 28 53  1  0  0  0
 28 54  1  0  0  0
 29 30  1  0  0  0
 29 35  1  0  0  0
 30 31  1  0  0  0
 30 55  1  0  0  0
 30 56  1  0  0  0
 31 32  1  0  0  0
 31 57  1  0  0  0
 31 58  1  0  0  0
 32 33  1  0  0  0
 32 34  1  0  0  0
 32 71  1  0  0  0
 33 59  1  0  0  0
 33 60  1  0  0  0
 33 61  1  0  0  0
 34 35  1  0  0  0
 34 62  1  0  0  0
 34 63  1  0  0  0
 35 64  1  0  0  0
 35 65  1  0  0  0
 37 66  1  0  0  0
 37 67  1  0  0  0
 37 68  1  0  0  0
M  CHG  3  10   1  12   1  32   1
M  END
> <s_m_source_file>
/Users/choderaj/github/choderalab/mcce-charges/mcce-charges.jchodera/epik_inhibitors/output/Imatinib/Imatinib-input.mol2

> <i_m_source_file_index>
1

> <r_epik_Ionization_Penalty>
  0.0821

> <r_epik_Ionization_Penalty_Charging>
  0.0722

> <r_epik_Ionization_Penalty_Neutral>
  0.0100

> <r_epik_State_Penalty>
  0.2493

> <i_epik_Tot_Q>
3

$$$$
STI
                    3D
 Structure written by MMmdl.
 71 75  0  0  1  0            999 V2000
   16.3560  100.4060   50.6140 C   0  0  0  0  0  0
   15.2180  100.0120   51.4140 C   0  0  0  0  0  0
   15.0890  100.4530   52.7980 C   0  0  3  0  0  0
   16.1380  101.2980   53.3390 C   0  0  0  0  0  0
   17.2200  101.6600   52.5430 N   0  0  0  0  0  0
   17.3560  101.2430   51.2150 C   0  0  0  0  0  0
   13.9280  100.0780   53.6730 C   0  0  3  0  0  0
   12.7230   99.4700   53.1730 C   0  0  0  0  0  0
   11.7040   99.1720   54.1140 C   0  0  0  0  0  0
   11.8810   99.4640   55.4560 N   0  3  0  0  0  0
   13.0530  100.0500   55.9070 C   0  0  3  0  0  0
   14.0460  100.3450   55.0230 N   0  3  0  0  0  0
   13.2630  100.3620   57.2530 N   0  0  0  0  0  0
   12.3020  100.1090   58.2460 C   0  0  3  0  0  0
   11.1950  101.0400   58.4880 C   0  0  3  0  0  0
   10.2510  100.7220   59.5240 C   0  0  0  0  0  0
   10.3860   99.5200   60.3090 C   0  0  0  0  0  0
   11.4560   98.6100   60.0860 C   0  0  3  0  0  0
   12.4240   98.9210   59.0320 C   0  0  0  0  0  0
   11.5160   97.4360   60.9230 N   0  0  0  0  0  0
   12.4460   96.4150   60.9100 C   0  0  3  0  0  0
   12.4720   95.4420   62.0420 C   0  0  3  0  0  0
   13.6890   94.6960   62.3640 C   0  0  0  0  0  0
   13.6820   93.7490   63.4490 C   0  0  0  0  0  0
   12.4630   93.5460   64.2140 C   0  0  3  0  0  0
   11.2740   94.3010   63.8790 C   0  0  0  0  0  0
   11.2720   95.2300   62.8170 C   0  0  0  0  0  0
   12.3710   92.5420   65.3680 C   0  0  0  0  0  0
   11.2300   91.5790   65.3640 N   0  3  0  0  0  0
   11.2140   90.7780   64.0930 C   0  0  0  0  0  0
   10.0310   89.7760   64.0670 C   0  0  0  0  0  0
   10.0810   88.8580   65.2780 N   0  0  0  0  0  0
    8.9850   87.8750   65.3060 C   0  0  0  0  0  0
   10.0700   89.6590   66.5720 C   0  0  0  0  0  0
   11.2730   90.6520   66.5740 C   0  0  0  0  0  0
   13.2580   96.2310   60.0240 O   0  0  0  0  0  0
   10.9860  102.3510   57.6940 C   0  0  0  0  0  0
   16.4590  100.0740   49.5660 H   0  0  0  0  0  0
   14.4410   99.3690   50.9640 H   0  0  0  0  0  0
   16.1120  101.6720   54.3760 H   0  0  0  0  0  0
   18.2430  101.5700   50.6470 H   0  0  0  0  0  0
   12.5840   99.2390   52.1030 H   0  0  0  0  0  0
   10.7560   98.7040   53.7960 H   0  0  0  0  0  0
   14.2099  100.8239   57.5693 H   0  0  0  0  0  0
    9.4110  101.4100   59.7190 H   0  0  0  0  0  0
    9.6520   99.2900   61.1000 H   0  0  0  0  0  0
   13.2680   98.2410   58.8240 H   0  0  0  0  0  0
   10.7496   97.2709   61.6947 H   0  0  0  0  0  0
   14.6160   94.8480   61.7860 H   0  0  0  0  0  0
   14.5990   93.1860   63.6910 H   0  0  0  0  0  0
   10.3400   94.1640   64.4500 H   0  0  0  0  0  0
   10.3440   95.7830   62.5950 H   0  0  0  0  0  0
   13.2755   91.9162   65.3825 H   0  0  0  0  0  0
   12.2856   93.0852   66.3207 H   0  0  0  0  0  0
   11.1140   91.4567   63.2331 H   0  0  0  0  0  0
   12.1524   90.2108   64.0052 H   0  0  0  0  0  0
    9.0808   90.3301   64.0787 H   0  0  0  0  0  0
   10.0879   89.1651   63.1540 H   0  0  0  0  0  0
    9.0798   87.2456   66.2031 H   0  0  0  0  0  0
    9.0365   87.2427   64.4074 H   0  0  0  0  0  0
    8.0199   88.4024   65.3284 H   0  0  0  0  0  0
    9.1279   90.2218   66.6468 H   0  0  0  0  0  0
   10.1567   88.9738   67.4281 H   0  0  0  0  0  0
   12.2064   90.0701   66.5571 H   0  0  0  0  0  0
   11.2306   91.2504   67.4960 H   0  0  0  0  0  0
   10.0887  102.8665   58.0670 H   0  0  0  0  0  0
   10.8574  102.1168   56.6269 H   0  0  0  0  0  0
   11.8633  103.0019   57.8234 H   0  0  0  0  0  0
   14.9632  100.8099   55.4136 H   0  0  0  0  0  0
   11.0856   99.2307   56.1792 H   0  0  0  0  0  0
   10.3106   92.1812   65.4089 H   0  0  0  0  0  0
  1  2  1  0  0  0
  1  6  1  0  0  0
  1 38  1  0  0  0
  2  3  1  0  0  0
  2 39  1  0  0  0
  3  4  1  0  0  0
  3  7  1  0  0  0
  4  5  1  0  0  0
  4 40  1  0  0  0
  5  6  1  0  0  0
  6 41  1  0  0  0
  7  8  1  0  0  0
  7 12  1  0  0  0
  8  9  1  0  0  0
  8 42  1  0  0  0
  9 10  1  0  0  0
  9 43  1  0  0  0
 10 11  1  0  0  0
 10 70  1  0  0  0
 11 12  1  0  0  0
 11 13  1  0  0  0
 12 69  1  0  0  0
 13 14  1  0  0  0
 13 44  1  0  0  0
 14 15  1  0  0  0
 14 19  1  0  0  0
 15 16  1  0  0  0
 15 37  1  0  0  0
 16 17  1  0  0  0
 16 45  1  0  0  0
 17 18  1  0  0  0
 17 46  1  0  0  0
 18 19  1  0  0  0
 18 20  1  0  0  0
 19 47  1  0  0  0
 20 21  1  0  0  0
 20 48  1  0  0  0
 21 22  1  0  0  0
 21 36  1  0  0  0
 22 23  1  0  0  0
 22 27  1  0  0  0
 23 24  1  0  0  0
 23 49  1  0  0  0
 24 25  1  0  0  0
 24 50  1  0  0  0
 25 26  1  0  0  0
 25 28  1  0  0  0
 26 27  1  0  0  0
 26 51  1  0  0  0
 27 52  1  0  0  0
 28 29  1  0  0  0
 28 53  1  0  0  0
 28 54  1  0  0  0
 29 30  1  0  0  0
 29 35  1  0  0  0
 29 71  1  0  0  0
 30 31  1  0  0  0
 30 55  1  0  0  0
 30 56  1  0  0  0
 31 32  1  0  0  0
 31 57  1  0  0  0
 31 58  1  0  0  0
 32 33  1  0  0  0
 32 34  1  0  0  0
 33 59  1  0  0  0
 33 60  1  0  0  0
 33 61  1  0  0  0
 34 35  1  0  0  0
 34 62  1  0  0  0
 34 63  1  0  0  0
 35 64  1  0  0  0
 35 65  1  0  0  0
 37 66  1  0  0  0
 37 67  1  0  0  0
 37 68  1  0  0  0
M  CHG  3  10   1  12   1  29   1
M  END
> <s_m_source_file>
/Users/choderaj/github/choderalab/mcce-charges/mcce-charges.jchodera/epik_inhibitors/output/Imatinib/Imatinib-input.mol2

> <i_m_source_file_index>
1

> <r_epik_Ionization_Penalty>
  0.1896

> <r_epik_Ionization_Penalty_Charging>
  0.1855

> <r_epik_Ionization_Penalty_Neutral>
  0.0042

> <r_epik_State_Penalty>
  0.8451

> <i_epik_Tot_Q>
3

$$$$
STI
                    3D
 Structure written by MMmdl.
 70 74  0  0  1  0            999 V2000
   16.3560  100.4060   50.6140 C   0  0  0  0  0  0
   15.2180  100.0120   51.4140 C   0  0  0  0  0  0
   15.0890  100.4530   52.7980 C   0  0  3  0  0  0
   16.1380  101.2980   53.3390 C   0  0  0  0  0  0
   17.2200  101.6600   52.5430 N   0  0  0  0  0  0
   17.3560  101.2430   51.2150 C   0  0  0  0  0  0
   13.9280  100.0780   53.6730 C   0  0  3  0  0  0
   12.7230   99.4700   53.1730 C   0  0  0  0  0  0
   11.7040   99.1720   54.1140 C   0  0  0  0  0  0
   11.8810   99.4640   55.4560 N   0  3  0  0  0  0
   13.0530  100.0500   55.9070 C   0  0  3  0  0  0
   14.0460  100.3450   55.0230 N   0  3  0  0  0  0
   13.2630  100.3620   57.2530 N   0  0  0  0  0  0
   12.3020  100.1090   58.2460 C   0  0  3  0  0  0
   11.1950  101.0400   58.4880 C   0  0  3  0  0  0
   10.2510  100.7220   59.5240 C   0  0  0  0  0  0
   10.3860   99.5200   60.3090 C   0  0  0  0  0  0
   11.4560   98.6100   60.0860 C   0  0  3  0  0  0
   12.4240   98.9210   59.0320 C   0  0  0  0  0  0
   11.5160   97.4360   60.9230 N   0  0  0  0  0  0
   12.4460   96.4150   60.9100 C   0  0  3  0  0  0
   12.4720   95.4420   62.0420 C   0  0  3  0  0  0
   13.6890   94.6960   62.3640 C   0  0  0  0  0  0
   13.6820   93.7490   63.4490 C   0  0  0  0  0  0
   12.4630   93.5460   64.2140 C   0  0  3  0  0  0
   11.2740   94.3010   63.8790 C   0  0  0  0  0  0
   11.2720   95.2300   62.8170 C   0  0  0  0  0  0
   12.3710   92.5420   65.3680 C   0  0  0  0  0  0
   11.2300   91.5790   65.3640 N   0  0  0  0  0  0
   11.2140   90.7780   64.0930 C   0  0  0  0  0  0
   10.0310   89.7760   64.0670 C   0  0  0  0  0  0
   10.0810   88.8580   65.2780 N   0  0  0  0  0  0
    8.9850   87.8750   65.3060 C   0  0  0  0  0  0
   10.0700   89.6590   66.5720 C   0  0  0  0  0  0
   11.2730   90.6520   66.5740 C   0  0  0  0  0  0
   13.2580   96.2310   60.0240 O   0  0  0  0  0  0
   10.9860  102.3510   57.6940 C   0  0  0  0  0  0
   16.4590  100.0740   49.5660 H   0  0  0  0  0  0
   14.4410   99.3690   50.9640 H   0  0  0  0  0  0
   16.1120  101.6720   54.3760 H   0  0  0  0  0  0
   18.2430  101.5700   50.6470 H   0  0  0  0  0  0
   12.5840   99.2390   52.1030 H   0  0  0  0  0  0
   10.7560   98.7040   53.7960 H   0  0  0  0  0  0
   14.2099  100.8239   57.5693 H   0  0  0  0  0  0
    9.4110  101.4100   59.7190 H   0  0  0  0  0  0
    9.6520   99.2900   61.1000 H   0  0  0  0  0  0
   13.2680   98.2410   58.8240 H   0  0  0  0  0  0
   10.7496   97.2709   61.6947 H   0  0  0  0  0  0
   14.6160   94.8480   61.7860 H   0  0  0  0  0  0
   14.5990   93.1860   63.6910 H   0  0  0  0  0  0
   10.3400   94.1640   64.4500 H   0  0  0  0  0  0
   10.3440   95.7830   62.5950 H   0  0  0  0  0  0
   13.2755   91.9162   65.3825 H   0  0  0  0  0  0
   12.2856   93.0852   66.3207 H   0  0  0  0  0  0
   11.1140   91.4567   63.2331 H   0  0  0  0  0  0
   12.1524   90.2108   64.0052 H   0  0  0  0  0  0
    9.0808   90.3301   64.0787 H   0  0  0  0  0  0
   10.0879   89.1651   63.1540 H   0  0  0  0  0  0
    9.0798   87.2456   66.2031 H   0  0  0  0  0  0
    9.0365   87.2427   64.4074 H   0  0  0  0  0  0
    8.0199   88.4024   65.3284 H   0  0  0  0  0  0
    9.1279   90.2218   66.6468 H   0  0  0  0  0  0
   10.1567   88.9738   67.4281 H   0  0  0  0  0  0
   12.2064   90.0701   66.5571 H   0  0  0  0  0  0
   11.2306   91.2504   67.4960 H   0  0  0  0  0  0
   10.0887  102.8665   58.0670 H   0  0  0  0  0  0
   10.8574  102.1168   56.6269 H   0  0  0  0  0  0
   11.8633  103.0019   57.8234 H   0  0  0  0  0  0
   14.9632  100.8099   55.4136 H   0  0  0  0  0  0
   11.0856   99.2307   56.1792 H   0  0  0  0  0  0
  1  2  1  0  0  0
  1  6  1  0  0  0
  1 38  1  0  0  0
  2  3  1  0  0  0
  2 39  1  0  0  0
  3  4  1  0  0  0
  3  7  1  0  0  0
  4  5  1  0  0  0
  4 40  1  0  0  0
  5  6  1  0  0  0
  6 41  1  0  0  0
  7  8  1  0  0  0
  7 12  1  0  0  0
  8  9  1  0  0  0
  8 42  1  0  0  0
  9 10  1  0  0  0
  9 43  1  0  0  0
 10 11  1  0  0  0
 10 70  1  0  0  0
 11 12  1  0  0  0
 11 13  1  0  0  0
 12 69  1  0  0  0
 13 14  1  0  0  0
 13 44  1  0  0  0
 14 15  1  0  0  0
 14 19  1  0  0  0
 15 16  1  0  0  0
 15 37  1  0  0  0
 16 17  1  0  0  0
 16 45  1  0  0  0
 17 18  1  0  0  0
 17 46  1  0  0  0
 18 19  1  0  0  0
 18 20  1  0  0  0
 19 47  1  0  0  0
 20 21  1  0  0  0
 20 48  1  0  0  0
 21 22  1  0  0  0
 21 36  1  0  0  0
 22 23  1  0  0  0
 22 27  1  0  0  0
 23 24  1  0  0  0
 23 49  1  0  0  0
 24 25  1  0  0  0
 24 50  1  0  0  0
 25 26  1  0  0  0
 25 28  1  0  0  0
 26 27  1  0  0  0
 26 51  1  0  0  0
 27 52  1  0  0  0
 28 29  1  0  0  0
 28 53  1  0  0  0
 28 54  1  0  0  0
 29 30  1  0  0  0
 29 35  1  0  0  0
 30 31  1  0  0  0
 30 55  1  0  0  0
 30 56  1  0  0  0
 31 32  1  0  0  0
 31 57  1  0  0  0
 31 58  1  0  0  0
 32 33  1  0  0  0
 32 34  1  0  0  0
 33 59  1  0  0  0
 33 60  1  0  0  0
 33 61  1  0  0  0
 34 35  1  0  0  0
 34 62  1  0  0  0
 34 63  1  0  0  0
 35 64  1  0  0  0
 35 65  1  0  0  0
 37 66  1  0  0  0
 37 67  1  0  0  0
 37 68  1  0  0  0
M  CHG  2  10   1  12   1
M  END
> <s_m_source_file>
/Users/choderaj/github/choderalab/mcce-charges/mcce-charges.jchodera/epik_inhibitors/output/Imatinib/Imatinib-input.mol2

> <i_m_source_file_index>
1

> <r_epik_Ionization_Penalty>
  2.0716

> <r_epik_Ionization_Penalty_Charging>
  0.0001

> <r_epik_Ionization_Penalty_Neutral>
  2.0715

> <r_epik_State_Penalty>
  1.5195

> <i_epik_Tot_Q>
2

$$$$
STI
                    3D
 Structure written by MMmdl.
 72 76  0  0  1  0            999 V2000
   16.3560  100.4060   50.6140 C   0  0  0  0  0  0
   15.2180  100.0120   51.4140 C   0  0  0  0  0  0
   15.0890  100.4530   52.7980 C   0  0  3  0  0  0
   16.1380  101.2980   53.3390 C   0  0  0  0  0  0
   17.2200  101.6600   52.5430 N   0  0  0  0  0  0
   17.3560  101.2430   51.2150 C   0  0  0  0  0  0
   13.9280  100.0780   53.6730 C   0  0  3  0  0  0
   12.7230   99.4700   53.1730 C   0  0  0  0  0  0
   11.7040   99.1720   54.1140 C   0  0  0  0  0  0
   11.8810   99.4640   55.4560 N   0  3  0  0  0  0
   13.0530  100.0500   55.9070 C   0  0  3  0  0  0
   14.0460  100.3450   55.0230 N   0  3  0  0  0  0
   13.2630  100.3620   57.2530 N   0  3  0  0  0  0
   12.3020  100.1090   58.2460 C   0  0  3  0  0  0
   11.1950  101.0400   58.4880 C   0  0  3  0  0  0
   10.2510  100.7220   59.5240 C   0  0  0  0  0  0
   10.3860   99.5200   60.3090 C   0  0  0  0  0  0
   11.4560   98.6100   60.0860 C   0  0  3  0  0  0
   12.4240   98.9210   59.0320 C   0  0  0  0  0  0
   11.5160   97.4360   60.9230 N   0  0  0  0  0  0
   12.4460   96.4150   60.9100 C   0  0  3  0  0  0
   12.4720   95.4420   62.0420 C   0  0  3  0  0  0
   13.6890   94.6960   62.3640 C   0  0  0  0  0  0
   13.6820   93.7490   63.4490 C   0  0  0  0  0  0
   12.4630   93.5460   64.2140 C   0  0  3  0  0  0
   11.2740   94.3010   63.8790 C   0  0  0  0  0  0
   11.2720   95.2300   62.8170 C   0  0  0  0  0  0
   12.3710   92.5420   65.3680 C   0  0  0  0  0  0
   11.2300   91.5790   65.3640 N   0  0  0  0  0  0
   11.2140   90.7780   64.0930 C   0  0  0  0  0  0
   10.0310   89.7760   64.0670 C   0  0  0  0  0  0
   10.0810   88.8580   65.2780 N   0  3  0  0  0  0
    8.9850   87.8750   65.3060 C   0  0  0  0  0  0
   10.0700   89.6590   66.5720 C   0  0  0  0  0  0
   11.2730   90.6520   66.5740 C   0  0  0  0  0  0
   13.2580   96.2310   60.0240 O   0  0  0  0  0  0
   10.9860  102.3510   57.6940 C   0  0  0  0  0  0
   16.4590  100.0740   49.5660 H   0  0  0  0  0  0
   14.4410   99.3690   50.9640 H   0  0  0  0  0  0
   16.1120  101.6720   54.3760 H   0  0  0  0  0  0
   18.2430  101.5700   50.6470 H   0  0  0  0  0  0
   12.5840   99.2390   52.1030 H   0  0  0  0  0  0
   10.7560   98.7040   53.7960 H   0  0  0  0  0  0
   14.1414   99.8135   57.6238 H   0  0  0  0  0  0
    9.4110  101.4100   59.7190 H   0  0  0  0  0  0
    9.6520   99.2900   61.1000 H   0  0  0  0  0  0
   13.2680   98.2410   58.8240 H   0  0  0  0  0  0
   10.7496   97.2709   61.6947 H   0  0  0  0  0  0
   14.6160   94.8480   61.7860 H   0  0  0  0  0  0
   14.5990   93.1860   63.6910 H   0  0  0  0  0  0
   10.3400   94.1640   64.4500 H   0  0  0  0  0  0
   10.3440   95.7830   62.5950 H   0  0  0  0  0  0
   13.2755   91.9162   65.3825 H   0  0  0  0  0  0
   12.2856   93.0852   66.3207 H   0  0  0  0  0  0
   11.1140   91.4567   63.2331 H   0  0  0  0  0  0
   12.1524   90.2108   64.0052 H   0  0  0  0  0  0
    9.0808   90.3301   64.0787 H   0  0  0  0  0  0
   10.0879   89.1651   63.1540 H   0  0  0  0  0  0
    9.0798   87.2456   66.2031 H   0  0  0  0  0  0
    9.0365   87.2427   64.4074 H   0  0  0  0  0  0
    8.0199   88.4024   65.3284 H   0  0  0  0  0  0
    9.1279   90.2218   66.6468 H   0  0  0  0  0  0
   10.1567   88.9738   67.4281 H   0  0  0  0  0  0
   12.2064   90.0701   66.5571 H   0  0  0  0  0  0
   11.2306   91.2504   67.4960 H   0  0  0  0  0  0
   10.0887  102.8665   58.0670 H   0  0  0  0  0  0
   10.8574  102.1168   56.6269 H   0  0  0  0  0  0
   11.8633  103.0019   57.8234 H   0  0  0  0  0  0
   14.9632  100.8099   55.4136 H   0  0  0  0  0  0
   11.0856   99.2307   56.1792 H   0  0  0  0  0  0
   11.0061   88.2695   65.1892 H   0  0  0  0  0  0
   13.4357  101.4435   57.3561 H   0  0  0  0  0  0
  1  2  1  0  0  0
  1  6  1  0  0  0
  1 38  1  0  0  0
  2  3  1  0  0  0
  2 39  1  0  0  0
  3  4  1  0  0  0
  3  7  1  0  0  0
  4  5  1  0  0  0
  4 40  1  0  0  0
  5  6  1  0  0  0
  6 41  1  0  0  0
  7  8  1  0  0  0
  7 12  1  0  0  0
  8  9  1  0  0  0
  8 42  1  0  0  0
  9 10  1  0  0  0
  9 43  1  0  0  0
 10 11  1  0  0  0
 10 70  1  0  0  0
 11 12  1  0  0  0
 11 13  1  0  0  0
 12 69  1  0  0  0
 13 14  1  0  0  0
 13 44  1  0  0  0
 13 72  1  0  0  0
 14 15  1  0  0  0
 14 19  1  0  0  0
 15 16  1  0  0  0
 15 37  1  0  0  0
 16 17  1  0  0  0
 16 45  1  0  0  0
 17 18  1  0  0  0
 17 46  1  0  0  0
 18 19  1  0  0  0
 18 20  1  0  0  0
 19 47  1  0  0  0
 20 21  1  0  0  0
 20 48  1  0  0  0
 21 22  1  0  0  0
 21 36  1  0  0  0
 22 23  1  0  0  0
 22 27  1  0  0  0
 23 24  1  0  0  0
 23 49  1  0  0  0
 24 25  1  0  0  0
 24 50  1  0  0  0
 25 26  1  0  0  0
 25 28  1  0  0  0
 26 27  1  0  0  0
 26 51  1  0  0  0
 27 52  1  0  0  0
 28 29  1  0  0  0
 28 53  1  0  0  0
 28 54  1  0  0  0
 29 30  1  0  0  0
 29 35  1  0  0  0
 30 31  1  0  0  0
 30 55  1  0  0  0
 30 56  1  0  0  0
 31 32  1  0  0  0
 31 57  1  0  0  0
 31 58  1  0  0  0
 32 33  1  0  0  0
 32 34  1  0  0  0
 32 71  1  0  0  0
 33 59  1  0  0  0
 33 60  1  0  0  0
 33 61  1  0  0  0
 34 35  1  0  0  0
 34 62  1  0  0  0
 34 63  1  0  0  0
 35 64  1  0  0  0
 35 65  1  0  0  0
 37 66  1  0  0  0
 37 67  1  0  0  0
 37 68  1  0  0  0
M  CHG  4  10   1  12   1  13   1  32   1
M  END
> <s_m_source_file>
/Users/choderaj/github/choderalab/mcce-charges/mcce-charges.jchodera/epik_inhibitors/output/Imatinib/Imatinib-input.mol2

> <i_m_source_file_index>
1

> <r_epik_Ionization_Penalty>
  2.5463

> <r_epik_Ionization_Penalty_Charging>
  2.5455

> <r_epik_Ionization_Penalty_Neutral>
  0.0008

> <r_epik_State_Penalty>
  2.9363

> <i_epik_Tot_Q>
4

$$$$
STI
                    3D
 Structure written by MMmdl.
 70 74  0  0  1  0            999 V2000
   16.3560  100.4060   50.6140 C   0  0  0  0  0  0
   15.2180  100.0120   51.4140 C   0  0  0  0  0  0
   15.0890  100.4530   52.7980 C   0  0  3  0  0  0
   16.1380  101.2980   53.3390 C   0  0  0  0  0  0
   17.2200  101.6600   52.5430 N   0  0  0  0  0  0
   17.3560  101.2430   51.2150 C   0  0  0  0  0  0
   13.9280  100.0780   53.6730 C   0  0  3  0  0  0
   12.7230   99.4700   53.1730 C   0  0  0  0  0  0
   11.7040   99.1720   54.1140 C   0  0  0  0  0  0
   11.8810   99.4640   55.4560 N   0  0  0  0  0  0
   13.0530  100.0500   55.9070 C   0  0  3  0  0  0
   14.0460  100.3450   55.0230 N   0  0  0  0  0  0
   13.2630  100.3620   57.2530 N   0  3  0  0  0  0
   12.3020  100.1090   58.2460 C   0  0  3  0  0  0
   11.1950  101.0400   58.4880 C   0  0  3  0  0  0
   10.2510  100.7220   59.5240 C   0  0  0  0  0  0
   10.3860   99.5200   60.3090 C   0  0  0  0  0  0
   11.4560   98.6100   60.0860 C   0  0  3  0  0  0
   12.4240   98.9210   59.0320 C   0  0  0  0  0  0
   11.5160   97.4360   60.9230 N   0  0  0  0  0  0
   12.4460   96.4150   60.9100 C   0  0  3  0  0  0
   12.4720   95.4420   62.0420 C   0  0  3  0  0  0
   13.6890   94.6960   62.3640 C   0  0  0  0  0  0
   13.6820   93.7490   63.4490 C   0  0  0  0  0  0
   12.4630   93.5460   64.2140 C   0  0  3  0  0  0
   11.2740   94.3010   63.8790 C   0  0  0  0  0  0
   11.2720   95.2300   62.8170 C   0  0  0  0  0  0
   12.3710   92.5420   65.3680 C   0  0  0  0  0  0
   11.2300   91.5790   65.3640 N   0  0  0  0  0  0
   11.2140   90.7780   64.0930 C   0  0  0  0  0  0
   10.0310   89.7760   64.0670 C   0  0  0  0  0  0
   10.0810   88.8580   65.2780 N   0  3  0  0  0  0
    8.9850   87.8750   65.3060 C   0  0  0  0  0  0
   10.0700   89.6590   66.5720 C   0  0  0  0  0  0
   11.2730   90.6520   66.5740 C   0  0  0  0  0  0
   13.2580   96.2310   60.0240 O   0  0  0  0  0  0
   10.9860  102.3510   57.6940 C   0  0  0  0  0  0
   16.4590  100.0740   49.5660 H   0  0  0  0  0  0
   14.4410   99.3690   50.9640 H   0  0  0  0  0  0
   16.1120  101.6720   54.3760 H   0  0  0  0  0  0
   18.2430  101.5700   50.6470 H   0  0  0  0  0  0
   12.5840   99.2390   52.1030 H   0  0  0  0  0  0
   10.7560   98.7040   53.7960 H   0  0  0  0  0  0
   14.1414   99.8135   57.6238 H   0  0  0  0  0  0
    9.4110  101.4100   59.7190 H   0  0  0  0  0  0
    9.6520   99.2900   61.1000 H   0  0  0  0  0  0
   13.2680   98.2410   58.8240 H   0  0  0  0  0  0
   10.7496   97.2709   61.6947 H   0  0  0  0  0  0
   14.6160   94.8480   61.7860 H   0  0  0  0  0  0
   14.5990   93.1860   63.6910 H   0  0  0  0  0  0
   10.3400   94.1640   64.4500 H   0  0  0  0  0  0
   10.3440   95.7830   62.5950 H   0  0  0  0  0  0
   13.2755   91.9162   65.3825 H   0  0  0  0  0  0
   12.2856   93.0852   66.3207 H   0  0  0  0  0  0
   11.1140   91.4567   63.2331 H   0  0  0  0  0  0
   12.1524   90.2108   64.0052 H   0  0  0  0  0  0
    9.0808   90.3301   64.0787 H   0  0  0  0  0  0
   10.0879   89.1651   63.1540 H   0  0  0  0  0  0
    9.0798   87.2456   66.2031 H   0  0  0  0  0  0
    9.0365   87.2427   64.4074 H   0  0  0  0  0  0
    8.0199   88.4024   65.3284 H   0  0  0  0  0  0
    9.1279   90.2218   66.6468 H   0  0  0  0  0  0
   10.1567   88.9738   67.4281 H   0  0  0  0  0  0
   12.2064   90.0701   66.5571 H   0  0  0  0  0  0
   11.2306   91.2504   67.4960 H   0  0  0  0  0  0
   10.0887  102.8665   58.0670 H   0  0  0  0  0  0
   10.8574  102.1168   56.6269 H   0  0  0  0  0  0
   11.8633  103.0019   57.8234 H   0  0  0  0  0  0
   13.4357  101.4435   57.3561 H   0  0  0  0  0  0
   11.0061   88.2695   65.1892 H   0  0  0  0  0  0
  1  2  1  0  0  0
  1  6  1  0  0  0
  1 38  1  0  0  0
  2  3  1  0  0  0
  2 39  1  0  0  0
  3  4  1  0  0  0
  3  7  1  0  0  0
  4  5  1  0  0  0
  4 40  1  0  0  0
  5  6  1  0  0  0
  6 41  1  0  0  0
  7  8  1  0  0  0
  7 12  1  0  0  0
  8  9  1  0  0  0
  8 42  1  0  0  0
  9 10  1  0  0  0
  9 43  1  0  0  0
 10 11  1  0  0  0
 11 12  1  0  0  0
 11 13  1  0  0  0
 13 14  1  0  0  0
 13 44  1  0  0  0
 13 69  1  0  0  0
 14 15  1  0  0  0
 14 19  1  0  0  0
 15 16  1  0  0  0
 15 37  1  0  0  0
 16 17  1  0  0  0
 16 45  1  0  0  0
 17 18  1  0  0  0
 17 46  1  0  0  0
 18 19  1  0  0  0
 18 20  1  0  0  0
 19 47  1  0  0  0
 20 21  1  0  0  0
 20 48  1  0  0  0
 21 22  1  0  0  0
 21 36  1  0  0  0
 22 23  1  0  0  0
 22 27  1  0  0  0
 23 24  1  0  0  0
 23 49  1  0  0  0
 24 25  1  0  0  0
 24 50  1  0  0  0
 25 26  1  0  0  0
 25 28  1  0  0  0
 26 27  1  0  0  0
 26 51  1  0  0  0
 27 52  1  0  0  0
 28 29  1  0  0  0
 28 53  1  0  0  0
 28 54  1  0  0  0
 29 30  1  0  0  0
 29 35  1  0  0  0
 30 31  1  0  0  0
 30 55  1  0  0  0
 30 56  1  0  0  0
 31 32  1  0  0  0
 31 57  1  0  0  0
 31 58  1  0  0  0
 32 33  1  0  0  0
 32 34  1  0  0  0
 32 70  1  0  0  0
 33 59  1  0  0  0
 33 60  1  0  0  0
 33 61  1  0  0  0
 34 35  1  0  0  0
 34 62  1  0  0  0
 34 63  1  0  0  0
 35 64  1  0  0  0
 35 65  1  0  0  0
 37 66  1  0  0  0
 37 67  1  0  0  0
 37 68  1  0  0  0
M  CHG  2  13   1  32   1
M  END
> <s_m_source_file>
/Users/choderaj/github/choderalab/mcce-charges/mcce-charges.jchodera/epik_inhibitors/output/Imatinib/Imatinib-input.mol2

> <i_m_source_file_index>
1

> <r_epik_Ionization_Penalty>
  0.5108

> <r_epik_Ionization_Penalty_Charging>
  0.0721

> <r_epik_Ionization_Penalty_Neutral>
  0.4387

> <r_epik_State_Penalty>
  3.0075

> <i_epik_Tot_Q>
2

$$$$
STI
                    3D
 Structure written by MMmdl.
 71 75  0  0  1  0            999 V2000
   16.3560  100.4060   50.6140 C   0  0  0  0  0  0
   15.2180  100.0120   51.4140 C   0  0  0  0  0  0
   15.0890  100.4530   52.7980 C   0  0  3  0  0  0
   16.1380  101.2980   53.3390 C   0  0  0  0  0  0
   17.2200  101.6600   52.5430 N   0  0  0  0  0  0
   17.3560  101.2430   51.2150 C   0  0  0  0  0  0
   13.9280  100.0780   53.6730 C   0  0  3  0  0  0
   12.7230   99.4700   53.1730 C   0  0  0  0  0  0
   11.7040   99.1720   54.1140 C   0  0  0  0  0  0
   11.8810   99.4640   55.4560 N   0  0  0  0  0  0
   13.0530  100.0500   55.9070 C   0  0  3  0  0  0
   14.0460  100.3450   55.0230 N   0  3  0  0  0  0
   13.2630  100.3620   57.2530 N   0  3  0  0  0  0
   12.3020  100.1090   58.2460 C   0  0  3  0  0  0
   11.1950  101.0400   58.4880 C   0  0  3  0  0  0
   10.2510  100.7220   59.5240 C   0  0  0  0  0  0
   10.3860   99.5200   60.3090 C   0  0  0  0  0  0
   11.4560   98.6100   60.0860 C   0  0  3  0  0  0
   12.4240   98.9210   59.0320 C   0  0  0  0  0  0
   11.5160   97.4360   60.9230 N   0  0  0  0  0  0
   12.4460   96.4150   60.9100 C   0  0  3  0  0  0
   12.4720   95.4420   62.0420 C   0  0  3  0  0  0
   13.6890   94.6960   62.3640 C   0  0  0  0  0  0
   13.6820   93.7490   63.4490 C   0  0  0  0  0  0
   12.4630   93.5460   64.2140 C   0  0  3  0  0  0
   11.2740   94.3010   63.8790 C   0  0  0  0  0  0
   11.2720   95.2300   62.8170 C   0  0  0  0  0  0
   12.3710   92.5420   65.3680 C   0  0  0  0  0  0
   11.2300   91.5790   65.3640 N   0  0  0  0  0  0
   11.2140   90.7780   64.0930 C   0  0  0  0  0  0
   10.0310   89.7760   64.0670 C   0  0  0  0  0  0
   10.0810   88.8580   65.2780 N   0  3  0  0  0  0
    8.9850   87.8750   65.3060 C   0  0  0  0  0  0
   10.0700   89.6590   66.5720 C   0  0  0  0  0  0
   11.2730   90.6520   66.5740 C   0  0  0  0  0  0
   13.2580   96.2310   60.0240 O   0  0  0  0  0  0
   10.9860  102.3510   57.6940 C   0  0  0  0  0  0
   16.4590  100.0740   49.5660 H   0  0  0  0  0  0
   14.4410   99.3690   50.9640 H   0  0  0  0  0  0
   16.1120  101.6720   54.3760 H   0  0  0  0  0  0
   18.2430  101.5700   50.6470 H   0  0  0  0  0  0
   12.5840   99.2390   52.1030 H   0  0  0  0  0  0
   10.7560   98.7040   53.7960 H   0  0  0  0  0  0
   14.1414   99.8135   57.6238 H   0  0  0  0  0  0
    9.4110  101.4100   59.7190 H   0  0  0  0  0  0
    9.6520   99.2900   61.1000 H   0  0  0  0  0  0
   13.2680   98.2410   58.8240 H   0  0  0  0  0  0
   10.7496   97.2709   61.6947 H   0  0  0  0  0  0
   14.6160   94.8480   61.7860 H   0  0  0  0  0  0
   14.5990   93.1860   63.6910 H   0  0  0  0  0  0
   10.3400   94.1640   64.4500 H   0  0  0  0  0  0
   10.3440   95.7830   62.5950 H   0  0  0  0  0  0
   13.2755   91.9162   65.3825 H   0  0  0  0  0  0
   12.2856   93.0852   66.3207 H   0  0  0  0  0  0
   11.1140   91.4567   63.2331 H   0  0  0  0  0  0
   12.1524   90.2108   64.0052 H   0  0  0  0  0  0
    9.0808   90.3301   64.0787 H   0  0  0  0  0  0
   10.0879   89.1651   63.1540 H   0  0  0  0  0  0
    9.0798   87.2456   66.2031 H   0  0  0  0  0  0
    9.0365   87.2427   64.4074 H   0  0  0  0  0  0
    8.0199   88.4024   65.3284 H   0  0  0  0  0  0
    9.1279   90.2218   66.6468 H   0  0  0  0  0  0
   10.1567   88.9738   67.4281 H   0  0  0  0  0  0
   12.2064   90.0701   66.5571 H   0  0  0  0  0  0
   11.2306   91.2504   67.4960 H   0  0  0  0  0  0
   10.0887  102.8665   58.0670 H   0  0  0  0  0  0
   10.8574  102.1168   56.6269 H   0  0  0  0  0  0
   11.8633  103.0019   57.8234 H   0  0  0  0  0  0
   13.4357  101.4435   57.3561 H   0  0  0  0  0  0
   11.0061   88.2695   65.1892 H   0  0  0  0  0  0
   14.9632  100.8099   55.4136 H   0  0  0  0  0  0
  1  2  1  0  0  0
  1  6  1  0  0  0
  1 38  1  0  0  0
  2  3  1  0  0  0
  2 39  1  0  0  0
  3  4  1  0  0  0
  3  7  1  0  0  0
  4  5  1  0  0  0
  4 40  1  0  0  0
  5  6  1  0  0  0
  6 41  1  0  0  0
  7  8  1  0  0  0
  7 12  1  0  0  0
  8  9  1  0  0  0
  8 42  1  0  0  0
  9 10  1  0  0  0
  9 43  1  0  0  0
 10 11  1  0  0  0
 11 12  1  0  0  0
 11 13  1  0  0  0
 12 71  1  0  0  0
 13 14  1  0  0  0
 13 44  1  0  0  0
 13 69  1  0  0  0
 14 15  1  0  0  0
 14 19  1  0  0  0
 15 16  1  0  0  0
 15 37  1  0  0  0
 16 17  1  0  0  0
 16 45  1  0  0  0
 17 18  1  0  0  0
 17 46  1  0  0  0
 18 19  1  0  0  0
 18 20  1  0  0  0
 19 47  1  0  0  0
 20 21  1  0  0  0
 20 48  1  0  0  0
 21 22  1  0  0  0
 21 36  1  0  0  0
 22 23  1  0  0  0
 22 27  1  0  0  0
 23 24  1  0  0  0
 23 49  1  0  0  0
 24 25  1  0  0  0
 24 50  1  0  0  0
 25 26  1  0  0  0
 25 28  1  0  0  0
 26 27  1  0  0  0
 26 51  1  0  0  0
 27 52  1  0  0  0
 28 29  1  0  0  0
 28 53  1  0  0  0
 28 54  1  0  0  0
 29 30  1  0  0  0
 29 35  1  0  0  0
 30 31  1  0  0  0
 30 55  1  0  0  0
 30 56  1  0  0  0
 31 32  1  0  0  0
 31 57  1  0  0  0
 31 58  1  0  0  0
 32 33  1  0  0  0
 32 34  1  0  0  0
 32 70  1  0  0  0
 33 59  1  0  0  0
 33 60  1  0  0  0
 33 61  1  0  0  0
 34 35  1  0  0  0
 34 62  1  0  0  0
 34 63  1  0  0  0
 35 64  1  0  0  0
 35 65  1  0  0  0
 37 66  1  0  0  0
 37 67  1  0  0  0
 37 68  1  0  0  0
M  CHG  3  12   1  13   1  32   1
M  END
> <s_m_source_file>
/Users/choderaj/github/choderalab/mcce-charges/mcce-charges.jchodera/epik_inhibitors/output/Imatinib/Imatinib-input.mol2

> <i_m_source_file_index>
1

> <r_epik_Ionization_Penalty>
  0.6075

> <r_epik_Ionization_Penalty_Charging>
  0.6067

> <r_epik_Ionization_Penalty_Neutral>
  0.0008

> <r_epik_State_Penalty>
  3.2071

> <i_epik_Tot_Q>
3

$$$$
STI
                    3D
 Structure written by MMmdl.
 70 74  0  0  1  0            999 V2000
   16.3560  100.4060   50.6140 C   0  0  0  0  0  0
   15.2180  100.0120   51.4140 C   0  0  0  0  0  0
   15.0890  100.4530   52.7980 C   0  0  3  0  0  0
   16.1380  101.2980   53.3390 C   0  0  0  0  0  0
   17.2200  101.6600   52.5430 N   0  0  0  0  0  0
   17.3560  101.2430   51.2150 C   0  0  0  0  0  0
   13.9280  100.0780   53.6730 C   0  0  3  0  0  0
   12.7230   99.4700   53.1730 C   0  0  0  0  0  0
   11.7040   99.1720   54.1140 C   0  0  0  0  0  0
   11.8810   99.4640   55.4560 N   0  0  0  0  0  0
   13.0530  100.0500   55.9070 C   0  0  3  0  0  0
   14.0460  100.3450   55.0230 N   0  0  0  0  0  0
   13.2630  100.3620   57.2530 N   0  3  0  0  0  0
   12.3020  100.1090   58.2460 C   0  0  3  0  0  0
   11.1950  101.0400   58.4880 C   0  0  3  0  0  0
   10.2510  100.7220   59.5240 C   0  0  0  0  0  0
   10.3860   99.5200   60.3090 C   0  0  0  0  0  0
   11.4560   98.6100   60.0860 C   0  0  3  0  0  0
   12.4240   98.9210   59.0320 C   0  0  0  0  0  0
   11.5160   97.4360   60.9230 N   0  0  0  0  0  0
   12.4460   96.4150   60.9100 C   0  0  3  0  0  0
   12.4720   95.4420   62.0420 C   0  0  3  0  0  0
   13.6890   94.6960   62.3640 C   0  0  0  0  0  0
   13.6820   93.7490   63.4490 C   0  0  0  0  0  0
   12.4630   93.5460   64.2140 C   0  0  3  0  0  0
   11.2740   94.3010   63.8790 C   0  0  0  0  0  0
   11.2720   95.2300   62.8170 C   0  0  0  0  0  0
   12.3710   92.5420   65.3680 C   0  0  0  0  0  0
   11.2300   91.5790   65.3640 N   0  3  0  0  0  0
   11.2140   90.7780   64.0930 C   0  0  0  0  0  0
   10.0310   89.7760   64.0670 C   0  0  0  0  0  0
   10.0810   88.8580   65.2780 N   0  0  0  0  0  0
    8.9850   87.8750   65.3060 C   0  0  0  0  0  0
   10.0700   89.6590   66.5720 C   0  0  0  0  0  0
   11.2730   90.6520   66.5740 C   0  0  0  0  0  0
   13.2580   96.2310   60.0240 O   0  0  0  0  0  0
   10.9860  102.3510   57.6940 C   0  0  0  0  0  0
   16.4590  100.0740   49.5660 H   0  0  0  0  0  0
   14.4410   99.3690   50.9640 H   0  0  0  0  0  0
   16.1120  101.6720   54.3760 H   0  0  0  0  0  0
   18.2430  101.5700   50.6470 H   0  0  0  0  0  0
   12.5840   99.2390   52.1030 H   0  0  0  0  0  0
   10.7560   98.7040   53.7960 H   0  0  0  0  0  0
   14.1414   99.8135   57.6238 H   0  0  0  0  0  0
    9.4110  101.4100   59.7190 H   0  0  0  0  0  0
    9.6520   99.2900   61.1000 H   0  0  0  0  0  0
   13.2680   98.2410   58.8240 H   0  0  0  0  0  0
   10.7496   97.2709   61.6947 H   0  0  0  0  0  0
   14.6160   94.8480   61.7860 H   0  0  0  0  0  0
   14.5990   93.1860   63.6910 H   0  0  0  0  0  0
   10.3400   94.1640   64.4500 H   0  0  0  0  0  0
   10.3440   95.7830   62.5950 H   0  0  0  0  0  0
   13.2755   91.9162   65.3825 H   0  0  0  0  0  0
   12.2856   93.0852   66.3207 H   0  0  0  0  0  0
   11.1140   91.4567   63.2331 H   0  0  0  0  0  0
   12.1524   90.2108   64.0052 H   0  0  0  0  0  0
    9.0808   90.3301   64.0787 H   0  0  0  0  0  0
   10.0879   89.1651   63.1540 H   0  0  0  0  0  0
    9.0798   87.2456   66.2031 H   0  0  0  0  0  0
    9.0365   87.2427   64.4074 H   0  0  0  0  0  0
    8.0199   88.4024   65.3284 H   0  0  0  0  0  0
    9.1279   90.2218   66.6468 H   0  0  0  0  0  0
   10.1567   88.9738   67.4281 H   0  0  0  0  0  0
   12.2064   90.0701   66.5571 H   0  0  0  0  0  0
   11.2306   91.2504   67.4960 H   0  0  0  0  0  0
   10.0887  102.8665   58.0670 H   0  0  0  0  0  0
   10.8574  102.1168   56.6269 H   0  0  0  0  0  0
   11.8633  103.0019   57.8234 H   0  0  0  0  0  0
   13.4357  101.4435   57.3561 H   0  0  0  0  0  0
   10.3106   92.1812   65.4089 H   0  0  0  0  0  0
  1  2  1  0  0  0
  1  6  1  0  0  0
  1 38  1  0  0  0
  2  3  1  0  0  0
  2 39  1  0  0  0
  3  4  1  0  0  0
  3  7  1  0  0  0
  4  5  1  0  0  0
  4 40  1  0  0  0
  5  6  1  0  0  0
  6 41  1  0  0  0
  7  8  1  0  0  0
  7 12  1  0  0  0
  8  9  1  0  0  0
  8 42  1  0  0  0
  9 10  1  0  0  0
  9 43  1  0  0  0
 10 11  1  0  0  0
 11 12  1  0  0  0
 11 13  1  0  0  0
 13 14  1  0  0  0
 13 44  1  0  0  0
 13 69  1  0  0  0
 14 15  1  0  0  0
 14 19  1  0  0  0
 15 16  1  0  0  0
 15 37  1  0  0  0
 16 17  1  0  0  0
 16 45  1  0  0  0
 17 18  1  0  0  0
 17 46  1  0  0  0
 18 19  1  0  0  0
 18 20  1  0  0  0
 19 47  1  0  0  0
 20 21  1  0  0  0
 20 48  1  0  0  0
 21 22  1  0  0  0
 21 36  1  0  0  0
 22 23  1  0  0  0
 22 27  1  0  0  0
 23 24  1  0  0  0
 23 49  1  0  0  0
 24 25  1  0  0  0
 24 50  1  0  0  0
 25 26  1  0  0  0
 25 28  1  0  0  0
 26 27  1  0  0  0
 26 51  1  0  0  0
 27 52  1  0  0  0
 28 29  1  0  0  0
 28 53  1  0  0  0
 28 54  1  0  0  0
 29 30  1  0  0  0
 29 35  1  0  0  0
 29 70  1  0  0  0
 30 31  1  0  0  0
 30 55  1  0  0  0
 30 56  1  0  0  0
 31 32  1  0  0  0
 31 57  1  0  0  0
 31 58  1  0  0  0
 32 33  1  0  0  0
 32 34  1  0  0  0
 33 59  1  0  0  0
 33 60  1  0  0  0
 33 61  1  0  0  0
 34 35  1  0  0  0
 34 62  1  0  0  0
 34 63  1  0  0  0
 35 64  1  0  0  0
 35 65  1  0  0  0
 37 66  1  0  0  0
 37 67  1  0  0  0
 37 68  1  0  0  0
M  CHG  2  13   1  29   1
M  END
> <s_m_source_file>
/Users/choderaj/github/choderalab/mcce-charges/mcce-charges.jchodera/epik_inhibitors/output/Imatinib/Imatinib-input.mol2

> <i_m_source_file_index>
1

> <r_epik_Ionization_Penalty>
  0.6237

> <r_epik_Ionization_Penalty_Charging>
  0.1853

> <r_epik_Ionization_Penalty_Neutral>
  0.4383

> <r_epik_State_Penalty>
  3.6775

> <i_epik_Tot_Q>
2

$$$$
STI
                    3D
 Structure written by MMmdl.
 72 76  0  0  1  0            999 V2000
   16.3560  100.4060   50.6140 C   0  0  0  0  0  0
   15.2180  100.0120   51.4140 C   0  0  0  0  0  0
   15.0890  100.4530   52.7980 C   0  0  3  0  0  0
   16.1380  101.2980   53.3390 C   0  0  0  0  0  0
   17.2200  101.6600   52.5430 N   0  0  0  0  0  0
   17.3560  101.2430   51.2150 C   0  0  0  0  0  0
   13.9280  100.0780   53.6730 C   0  0  3  0  0  0
   12.7230   99.4700   53.1730 C   0  0  0  0  0  0
   11.7040   99.1720   54.1140 C   0  0  0  0  0  0
   11.8810   99.4640   55.4560 N   0  3  0  0  0  0
   13.0530  100.0500   55.9070 C   0  0  3  0  0  0
   14.0460  100.3450   55.0230 N   0  3  0  0  0  0
   13.2630  100.3620   57.2530 N   0  3  0  0  0  0
   12.3020  100.1090   58.2460 C   0  0  3  0  0  0
   11.1950  101.0400   58.4880 C   0  0  3  0  0  0
   10.2510  100.7220   59.5240 C   0  0  0  0  0  0
   10.3860   99.5200   60.3090 C   0  0  0  0  0  0
   11.4560   98.6100   60.0860 C   0  0  3  0  0  0
   12.4240   98.9210   59.0320 C   0  0  0  0  0  0
   11.5160   97.4360   60.9230 N   0  0  0  0  0  0
   12.4460   96.4150   60.9100 C   0  0  3  0  0  0
   12.4720   95.4420   62.0420 C   0  0  3  0  0  0
   13.6890   94.6960   62.3640 C   0  0  0  0  0  0
   13.6820   93.7490   63.4490 C   0  0  0  0  0  0
   12.4630   93.5460   64.2140 C   0  0  3  0  0  0
   11.2740   94.3010   63.8790 C   0  0  0  0  0  0
   11.2720   95.2300   62.8170 C   0  0  0  0  0  0
   12.3710   92.5420   65.3680 C   0  0  0  0  0  0
   11.2300   91.5790   65.3640 N   0  3  0  0  0  0
   11.2140   90.7780   64.0930 C   0  0  0  0  0  0
   10.0310   89.7760   64.0670 C   0  0  0  0  0  0
   10.0810   88.8580   65.2780 N   0  0  0  0  0  0
    8.9850   87.8750   65.3060 C   0  0  0  0  0  0
   10.0700   89.6590   66.5720 C   0  0  0  0  0  0
   11.2730   90.6520   66.5740 C   0  0  0  0  0  0
   13.2580   96.2310   60.0240 O   0  0  0  0  0  0
   10.9860  102.3510   57.6940 C   0  0  0  0  0  0
   16.4590  100.0740   49.5660 H   0  0  0  0  0  0
   14.4410   99.3690   50.9640 H   0  0  0  0  0  0
   16.1120  101.6720   54.3760 H   0  0  0  0  0  0
   18.2430  101.5700   50.6470 H   0  0  0  0  0  0
   12.5840   99.2390   52.1030 H   0  0  0  0  0  0
   10.7560   98.7040   53.7960 H   0  0  0  0  0  0
   14.1414   99.8135   57.6238 H   0  0  0  0  0  0
    9.4110  101.4100   59.7190 H   0  0  0  0  0  0
    9.6520   99.2900   61.1000 H   0  0  0  0  0  0
   13.2680   98.2410   58.8240 H   0  0  0  0  0  0
   10.7496   97.2709   61.6947 H   0  0  0  0  0  0
   14.6160   94.8480   61.7860 H   0  0  0  0  0  0
   14.5990   93.1860   63.6910 H   0  0  0  0  0  0
   10.3400   94.1640   64.4500 H   0  0  0  0  0  0
   10.3440   95.7830   62.5950 H   0  0  0  0  0  0
   13.2755   91.9162   65.3825 H   0  0  0  0  0  0
   12.2856   93.0852   66.3207 H   0  0  0  0  0  0
   11.1140   91.4567   63.2331 H   0  0  0  0  0  0
   12.1524   90.2108   64.0052 H   0  0  0  0  0  0
    9.0808   90.3301   64.0787 H   0  0  0  0  0  0
   10.0879   89.1651   63.1540 H   0  0  0  0  0  0
    9.0798   87.2456   66.2031 H   0  0  0  0  0  0
    9.0365   87.2427   64.4074 H   0  0  0  0  0  0
    8.0199   88.4024   65.3284 H   0  0  0  0  0  0
    9.1279   90.2218   66.6468 H   0  0  0  0  0  0
   10.1567   88.9738   67.4281 H   0  0  0  0  0  0
   12.2064   90.0701   66.5571 H   0  0  0  0  0  0
   11.2306   91.2504   67.4960 H   0  0  0  0  0  0
   10.0887  102.8665   58.0670 H   0  0  0  0  0  0
   10.8574  102.1168   56.6269 H   0  0  0  0  0  0
   11.8633  103.0019   57.8234 H   0  0  0  0  0  0
   14.9632  100.8099   55.4136 H   0  0  0  0  0  0
   11.0856   99.2307   56.1792 H   0  0  0  0  0  0
   10.3106   92.1812   65.4089 H   0  0  0  0  0  0
   13.4357  101.4435   57.3561 H   0  0  0  0  0  0
  1  2  1  0  0  0
  1  6  1  0  0  0
  1 38  1  0  0  0
  2  3  1  0  0  0
  2 39  1  0  0  0
  3  4  1  0  0  0
  3  7  1  0  0  0
  4  5  1  0  0  0
  4 40  1  0  0  0
  5  6  1  0  0  0
  6 41  1  0  0  0
  7  8  1  0  0  0
  7 12  1  0  0  0
  8  9  1  0  0  0
  8 42  1  0  0  0
  9 10  1  0  0  0
  9 43  1  0  0  0
 10 11  1  0  0  0
 10 70  1  0  0  0
 11 12  1  0  0  0
 11 13  1  0  0  0
 12 69  1  0  0  0
 13 14  1  0  0  0
 13 44  1  0  0  0
 13 72  1  0  0  0
 14 15  1  0  0  0
 14 19  1  0  0  0
 15 16  1  0  0  0
 15 37  1  0  0  0
 16 17  1  0  0  0
 16 45  1  0  0  0
 17 18  1  0  0  0
 17 46  1  0  0  0
 18 19  1  0  0  0
 18 20  1  0  0  0
 19 47  1  0  0  0
 20 21  1  0  0  0
 20 48  1  0  0  0
 21 22  1  0  0  0
 21 36  1  0  0  0
 22 23  1  0  0  0
 22 27  1  0  0  0
 23 24  1  0  0  0
 23 49  1  0  0  0
 24 25  1  0  0  0
 24 50  1  0  0  0
 25 26  1  0  0  0
 25 28  1  0  0  0
 26 27  1  0  0  0
 26 51  1  0  0  0
 27 52  1  0  0  0
 28 29  1  0  0  0
 28 53  1  0  0  0
 28 54  1  0  0  0
 29 30  1  0  0  0
 29 35  1  0  0  0
 29 71  1  0  0  0
 30 31  1  0  0  0
 30 55  1  0  0  0
 30 56  1  0  0  0
 31 32  1  0  0  0
 31 57  1  0  0  0
 31 58  1  0  0  0
 32 33  1  0  0  0
 32 34  1  0  0  0
 33 59  1  0  0  0
 33 60  1  0  0  0
 33 61  1  0  0  0
 34 35  1  0  0  0
 34 62  1  0  0  0
 34 63  1  0  0  0
 35 64  1  0  0  0
 35 65  1  0  0  0
 37 66  1  0  0  0
 37 67  1  0  0  0
 37 68  1  0  0  0
M  CHG  4  10   1  12   1  13   1  29   1
M  END
> <s_m_source_file>
/Users/choderaj/github/choderalab/mcce-charges/mcce-charges.jchodera/epik_inhibitors/output/Imatinib/Imatinib-input.mol2

> <i_m_source_file_index>
1

> <r_epik_Ionization_Penalty>
  3.1867

> <r_epik_Ionization_Penalty_Charging>
  3.1863

> <r_epik_Ionization_Penalty_Neutral>
  0.0004

> <r_epik_State_Penalty>
  3.8483

> <i_epik_Tot_Q>
4

$$$$
STI
                    3D
 Structure written by MMmdl.
 71 75  0  0  1  0            999 V2000
   16.3560  100.4060   50.6140 C   0  0  0  0  0  0
   15.2180  100.0120   51.4140 C   0  0  0  0  0  0
   15.0890  100.4530   52.7980 C   0  0  3  0  0  0
   16.1380  101.2980   53.3390 C   0  0  0  0  0  0
   17.2200  101.6600   52.5430 N   0  0  0  0  0  0
   17.3560  101.2430   51.2150 C   0  0  0  0  0  0
   13.9280  100.0780   53.6730 C   0  0  3  0  0  0
   12.7230   99.4700   53.1730 C   0  0  0  0  0  0
   11.7040   99.1720   54.1140 C   0  0  0  0  0  0
   11.8810   99.4640   55.4560 N   0  0  0  0  0  0
   13.0530  100.0500   55.9070 C   0  0  3  0  0  0
   14.0460  100.3450   55.0230 N   0  3  0  0  0  0
   13.2630  100.3620   57.2530 N   0  3  0  0  0  0
   12.3020  100.1090   58.2460 C   0  0  3  0  0  0
   11.1950  101.0400   58.4880 C   0  0  3  0  0  0
   10.2510  100.7220   59.5240 C   0  0  0  0  0  0
   10.3860   99.5200   60.3090 C   0  0  0  0  0  0
   11.4560   98.6100   60.0860 C   0  0  3  0  0  0
   12.4240   98.9210   59.0320 C   0  0  0  0  0  0
   11.5160   97.4360   60.9230 N   0  0  0  0  0  0
   12.4460   96.4150   60.9100 C   0  0  3  0  0  0
   12.4720   95.4420   62.0420 C   0  0  3  0  0  0
   13.6890   94.6960   62.3640 C   0  0  0  0  0  0
   13.6820   93.7490   63.4490 C   0  0  0  0  0  0
   12.4630   93.5460   64.2140 C   0  0  3  0  0  0
   11.2740   94.3010   63.8790 C   0  0  0  0  0  0
   11.2720   95.2300   62.8170 C   0  0  0  0  0  0
   12.3710   92.5420   65.3680 C   0  0  0  0  0  0
   11.2300   91.5790   65.3640 N   0  3  0  0  0  0
   11.2140   90.7780   64.0930 C   0  0  0  0  0  0
   10.0310   89.7760   64.0670 C   0  0  0  0  0  0
   10.0810   88.8580   65.2780 N   0  0  0  0  0  0
    8.9850   87.8750   65.3060 C   0  0  0  0  0  0
   10.0700   89.6590   66.5720 C   0  0  0  0  0  0
   11.2730   90.6520   66.5740 C   0  0  0  0  0  0
   13.2580   96.2310   60.0240 O   0  0  0  0  0  0
   10.9860  102.3510   57.6940 C   0  0  0  0  0  0
   16.4590  100.0740   49.5660 H   0  0  0  0  0  0
   14.4410   99.3690   50.9640 H   0  0  0  0  0  0
   16.1120  101.6720   54.3760 H   0  0  0  0  0  0
   18.2430  101.5700   50.6470 H   0  0  0  0  0  0
   12.5840   99.2390   52.1030 H   0  0  0  0  0  0
   10.7560   98.7040   53.7960 H   0  0  0  0  0  0
   14.1414   99.8135   57.6238 H   0  0  0  0  0  0
    9.4110  101.4100   59.7190 H   0  0  0  0  0  0
    9.6520   99.2900   61.1000 H   0  0  0  0  0  0
   13.2680   98.2410   58.8240 H   0  0  0  0  0  0
   10.7496   97.2709   61.6947 H   0  0  0  0  0  0
   14.6160   94.8480   61.7860 H   0  0  0  0  0  0
   14.5990   93.1860   63.6910 H   0  0  0  0  0  0
   10.3400   94.1640   64.4500 H   0  0  0  0  0  0
   10.3440   95.7830   62.5950 H   0  0  0  0  0  0
   13.2755   91.9162   65.3825 H   0  0  0  0  0  0
   12.2856   93.0852   66.3207 H   0  0  0  0  0  0
   11.1140   91.4567   63.2331 H   0  0  0  0  0  0
   12.1524   90.2108   64.0052 H   0  0  0  0  0  0
    9.0808   90.3301   64.0787 H   0  0  0  0  0  0
   10.0879   89.1651   63.1540 H   0  0  0  0  0  0
    9.0798   87.2456   66.2031 H   0  0  0  0  0  0
    9.0365   87.2427   64.4074 H   0  0  0  0  0  0
    8.0199   88.4024   65.3284 H   0  0  0  0  0  0
    9.1279   90.2218   66.6468 H   0  0  0  0  0  0
   10.1567   88.9738   67.4281 H   0  0  0  0  0  0
   12.2064   90.0701   66.5571 H   0  0  0  0  0  0
   11.2306   91.2504   67.4960 H   0  0  0  0  0  0
   10.0887  102.8665   58.0670 H   0  0  0  0  0  0
   10.8574  102.1168   56.6269 H   0  0  0  0  0  0
   11.8633  103.0019   57.8234 H   0  0  0  0  0  0
   13.4357  101.4435   57.3561 H   0  0  0  0  0  0
   10.3106   92.1812   65.4089 H   0  0  0  0  0  0
   14.9632  100.8099   55.4136 H   0  0  0  0  0  0
  1  2  1  0  0  0
  1  6  1  0  0  0
  1 38  1  0  0  0
  2  3  1  0  0  0
  2 39  1  0  0  0
  3  4  1  0  0  0
  3  7  1  0  0  0
  4  5  1  0  0  0
  4 40  1  0  0  0
  5  6  1  0  0  0
  6 41  1  0  0  0
  7  8  1  0  0  0
  7 12  1  0  0  0
  8  9  1  0  0  0
  8 42  1  0  0  0
  9 10  1  0  0  0
  9 43  1  0  0  0
 10 11  1  0  0  0
 11 12  1  0  0  0
 11 13  1  0  0  0
 12 71  1  0  0  0
 13 14  1  0  0  0
 13 44  1  0  0  0
 13 69  1  0  0  0
 14 15  1  0  0  0
 14 19  1  0  0  0
 15 16  1  0  0  0
 15 37  1  0  0  0
 16 17  1  0  0  0
 16 45  1  0  0  0
 17 18  1  0  0  0
 17 46  1  0  0  0
 18 19  1  0  0  0
 18 20  1  0  0  0
 19 47  1  0  0  0
 20 21  1  0  0  0
 20 48  1  0  0  0
 21 22  1  0  0  0
 21 36  1  0  0  0
 22 23  1  0  0  0
 22 27  1  0  0  0
 23 24  1  0  0  0
 23 49  1  0  0  0
 24 25  1  0  0  0
 24 50  1  0  0  0
 25 26  1  0  0  0
 25 28  1  0  0  0
 26 27  1  0  0  0
 26 51  1  0  0  0
 27 52  1  0  0  0
 28 29  1  0  0  0
 28 53  1  0  0  0
 28 54  1  0  0  0
 29 30  1  0  0  0
 29 35  1  0  0  0
 29 70  1  0  0  0
 30 31  1  0  0  0
 30 55  1  0  0  0
 30 56  1  0  0  0
 31 32  1  0  0  0
 31 57  1  0  0  0
 31 58  1  0  0  0
 32 33  1  0  0  0
 32 34  1  0  0  0
 33 59  1  0  0  0
 33 60  1  0  0  0
 33 61  1  0  0  0
 34 35  1  0  0  0
 34 62  1  0  0  0
 34 63  1  0  0  0
 35 64  1  0  0  0
 35 65  1  0  0  0
 37 66  1  0  0  0
 37 67  1  0  0  0
 37 68  1  0  0  0
M  CHG  3  12   1  13   1  29   1
M  END
> <s_m_source_file>
/Users/choderaj/github/choderalab/mcce-charges/mcce-charges.jchodera/epik_inhibitors/output/Imatinib/Imatinib-input.mol2

> <i_m_source_file_index>
1

> <r_epik_Ionization_Penalty>
  0.7212

> <r_epik_Ionization_Penalty_Charging>
  0.7208

> <r_epik_Ionization_Penalty_Neutral>
  0.0004

> <r_epik_State_Penalty>
  3.9272

> <i_epik_Tot_Q>
3

$$$$
STI
                    3D
 Structure written by MMmdl.
 71 75  0  0  1  0            999 V2000
   16.3560  100.4060   50.6140 C   0  0  0  0  0  0
   15.2180  100.0120   51.4140 C   0  0  0  0  0  0
   15.0890  100.4530   52.7980 C   0  0  3  0  0  0
   16.1380  101.2980   53.3390 C   0  0  0  0  0  0
   17.2200  101.6600   52.5430 N   0  0  0  0  0  0
   17.3560  101.2430   51.2150 C   0  0  0  0  0  0
   13.9280  100.0780   53.6730 C   0  0  3  0  0  0
   12.7230   99.4700   53.1730 C   0  0  0  0  0  0
   11.7040   99.1720   54.1140 C   0  0  0  0  0  0
   11.8810   99.4640   55.4560 N   0  3  0  0  0  0
   13.0530  100.0500   55.9070 C   0  0  3  0  0  0
   14.0460  100.3450   55.0230 N   0  0  0  0  0  0
   13.2630  100.3620   57.2530 N   0  3  0  0  0  0
   12.3020  100.1090   58.2460 C   0  0  3  0  0  0
   11.1950  101.0400   58.4880 C   0  0  3  0  0  0
   10.2510  100.7220   59.5240 C   0  0  0  0  0  0
   10.3860   99.5200   60.3090 C   0  0  0  0  0  0
   11.4560   98.6100   60.0860 C   0  0  3  0  0  0
   12.4240   98.9210   59.0320 C   0  0  0  0  0  0
   11.5160   97.4360   60.9230 N   0  0  0  0  0  0
   12.4460   96.4150   60.9100 C   0  0  3  0  0  0
   12.4720   95.4420   62.0420 C   0  0  3  0  0  0
   13.6890   94.6960   62.3640 C   0  0  0  0  0  0
   13.6820   93.7490   63.4490 C   0  0  0  0  0  0
   12.4630   93.5460   64.2140 C   0  0  3  0  0  0
   11.2740   94.3010   63.8790 C   0  0  0  0  0  0
   11.2720   95.2300   62.8170 C   0  0  0  0  0  0
   12.3710   92.5420   65.3680 C   0  0  0  0  0  0
   11.2300   91.5790   65.3640 N   0  0  0  0  0  0
   11.2140   90.7780   64.0930 C   0  0  0  0  0  0
   10.0310   89.7760   64.0670 C   0  0  0  0  0  0
   10.0810   88.8580   65.2780 N   0  3  0  0  0  0
    8.9850   87.8750   65.3060 C   0  0  0  0  0  0
   10.0700   89.6590   66.5720 C   0  0  0  0  0  0
   11.2730   90.6520   66.5740 C   0  0  0  0  0  0
   13.2580   96.2310   60.0240 O   0  0  0  0  0  0
   10.9860  102.3510   57.6940 C   0  0  0  0  0  0
   16.4590  100.0740   49.5660 H   0  0  0  0  0  0
   14.4410   99.3690   50.9640 H   0  0  0  0  0  0
   16.1120  101.6720   54.3760 H   0  0  0  0  0  0
   18.2430  101.5700   50.6470 H   0  0  0  0  0  0
   12.5840   99.2390   52.1030 H   0  0  0  0  0  0
   10.7560   98.7040   53.7960 H   0  0  0  0  0  0
   14.1414   99.8135   57.6238 H   0  0  0  0  0  0
    9.4110  101.4100   59.7190 H   0  0  0  0  0  0
    9.6520   99.2900   61.1000 H   0  0  0  0  0  0
   13.2680   98.2410   58.8240 H   0  0  0  0  0  0
   10.7496   97.2709   61.6947 H   0  0  0  0  0  0
   14.6160   94.8480   61.7860 H   0  0  0  0  0  0
   14.5990   93.1860   63.6910 H   0  0  0  0  0  0
   10.3400   94.1640   64.4500 H   0  0  0  0  0  0
   10.3440   95.7830   62.5950 H   0  0  0  0  0  0
   13.2755   91.9162   65.3825 H   0  0  0  0  0  0
   12.2856   93.0852   66.3207 H   0  0  0  0  0  0
   11.1140   91.4567   63.2331 H   0  0  0  0  0  0
   12.1524   90.2108   64.0052 H   0  0  0  0  0  0
    9.0808   90.3301   64.0787 H   0  0  0  0  0  0
   10.0879   89.1651   63.1540 H   0  0  0  0  0  0
    9.0798   87.2456   66.2031 H   0  0  0  0  0  0
    9.0365   87.2427   64.4074 H   0  0  0  0  0  0
    8.0199   88.4024   65.3284 H   0  0  0  0  0  0
    9.1279   90.2218   66.6468 H   0  0  0  0  0  0
   10.1567   88.9738   67.4281 H   0  0  0  0  0  0
   12.2064   90.0701   66.5571 H   0  0  0  0  0  0
   11.2306   91.2504   67.4960 H   0  0  0  0  0  0
   10.0887  102.8665   58.0670 H   0  0  0  0  0  0
   10.8574  102.1168   56.6269 H   0  0  0  0  0  0
   11.8633  103.0019   57.8234 H   0  0  0  0  0  0
   13.4357  101.4435   57.3561 H   0  0  0  0  0  0
   11.0061   88.2695   65.1892 H   0  0  0  0  0  0
   11.0856   99.2307   56.1792 H   0  0  0  0  0  0
  1  2  1  0  0  0
  1  6  1  0  0  0
  1 38  1  0  0  0
  2  3  1  0  0  0
  2 39  1  0  0  0
  3  4  1  0  0  0
  3  7  1  0  0  0
  4  5  1  0  0  0
  4 40  1  0  0  0
  5  6  1  0  0  0
  6 41  1  0  0  0
  7  8  1  0  0  0
  7 12  1  0  0  0
  8  9  1  0  0  0
  8 42  1  0  0  0
  9 10  1  0  0  0
  9 43  1  0  0  0
 10 11  1  0  0  0
 10 71  1  0  0  0
 11 12  1  0  0  0
 11 13  1  0  0  0
 13 14  1  0  0  0
 13 44  1  0  0  0
 13 69  1  0  0  0
 14 15  1  0  0  0
 14 19  1  0  0  0
 15 16  1  0  0  0
 15 37  1  0  0  0
 16 17  1  0  0  0
 16 45  1  0  0  0
 17 18  1  0  0  0
 17 46  1  0  0  0
 18 19  1  0  0  0
 18 20  1  0  0  0
 19 47  1  0  0  0
 20 21  1  0  0  0
 20 48  1  0  0  0
 21 22  1  0  0  0
 21 36  1  0  0  0
 22 23  1  0  0  0
 22 27  1  0  0  0
 23 24  1  0  0  0
 23 49  1  0  0  0
 24 25  1  0  0  0
 24 50  1  0  0  0
 25 26  1  0  0  0
 25 28  1  0  0  0
 26 27  1  0  0  0
 26 51  1  0  0  0
 27 52  1  0  0  0
 28 29  1  0  0  0
 28 53  1  0  0  0
 28 54  1  0  0  0
 29 30  1  0  0  0
 29 35  1  0  0  0
 30 31  1  0  0  0
 30 55  1  0  0  0
 30 56  1  0  0  0
 31 32  1  0  0  0
 31 57  1  0  0  0
 31 58  1  0  0  0
 32 33  1  0  0  0
 32 34  1  0  0  0
 32 70  1  0  0  0
 33 59  1  0  0  0
 33 60  1  0  0  0
 33 61  1  0  0  0
 34 35  1  0  0  0
 34 62  1  0  0  0
 34 63  1  0  0  0
 35 64  1  0  0  0
 35 65  1  0  0  0
 37 66  1  0  0  0
 37 67  1  0  0  0
 37 68  1  0  0  0
M  CHG  3  10   1  13   1  32   1
M  END
> <s_m_source_file>
/Users/choderaj/github/choderalab/mcce-charges/mcce-charges.jchodera/epik_inhibitors/output/Imatinib/Imatinib-input.mol2

> <i_m_source_file_index>
1

> <r_epik_Ionization_Penalty>
  1.0389

> <r_epik_Ionization_Penalty_Charging>
  1.0381

> <r_epik_Ionization_Penalty_Neutral>
  0.0008

> <r_epik_State_Penalty>
  3.9394

> <i_epik_Tot_Q>
3

$$$$
STI
                    3D
 Structure written by MMmdl.
 71 75  0  0  1  0            999 V2000
   16.3560  100.4060   50.6140 C   0  0  0  0  0  0
   15.2180  100.0120   51.4140 C   0  0  0  0  0  0
   15.0890  100.4530   52.7980 C   0  0  3  0  0  0
   16.1380  101.2980   53.3390 C   0  0  0  0  0  0
   17.2200  101.6600   52.5430 N   0  0  0  0  0  0
   17.3560  101.2430   51.2150 C   0  0  0  0  0  0
   13.9280  100.0780   53.6730 C   0  0  3  0  0  0
   12.7230   99.4700   53.1730 C   0  0  0  0  0  0
   11.7040   99.1720   54.1140 C   0  0  0  0  0  0
   11.8810   99.4640   55.4560 N   0  3  0  0  0  0
   13.0530  100.0500   55.9070 C   0  0  3  0  0  0
   14.0460  100.3450   55.0230 N   0  3  0  0  0  0
   13.2630  100.3620   57.2530 N   0  3  0  0  0  0
   12.3020  100.1090   58.2460 C   0  0  3  0  0  0
   11.1950  101.0400   58.4880 C   0  0  3  0  0  0
   10.2510  100.7220   59.5240 C   0  0  0  0  0  0
   10.3860   99.5200   60.3090 C   0  0  0  0  0  0
   11.4560   98.6100   60.0860 C   0  0  3  0  0  0
   12.4240   98.9210   59.0320 C   0  0  0  0  0  0
   11.5160   97.4360   60.9230 N   0  0  0  0  0  0
   12.4460   96.4150   60.9100 C   0  0  3  0  0  0
   12.4720   95.4420   62.0420 C   0  0  3  0  0  0
   13.6890   94.6960   62.3640 C   0  0  0  0  0  0
   13.6820   93.7490   63.4490 C   0  0  0  0  0  0
   12.4630   93.5460   64.2140 C   0  0  3  0  0  0
   11.2740   94.3010   63.8790 C   0  0  0  0  0  0
   11.2720   95.2300   62.8170 C   0  0  0  0  0  0
   12.3710   92.5420   65.3680 C   0  0  0  0  0  0
   11.2300   91.5790   65.3640 N   0  0  0  0  0  0
   11.2140   90.7780   64.0930 C   0  0  0  0  0  0
   10.0310   89.7760   64.0670 C   0  0  0  0  0  0
   10.0810   88.8580   65.2780 N   0  0  0  0  0  0
    8.9850   87.8750   65.3060 C   0  0  0  0  0  0
   10.0700   89.6590   66.5720 C   0  0  0  0  0  0
   11.2730   90.6520   66.5740 C   0  0  0  0  0  0
   13.2580   96.2310   60.0240 O   0  0  0  0  0  0
   10.9860  102.3510   57.6940 C   0  0  0  0  0  0
   16.4590  100.0740   49.5660 H   0  0  0  0  0  0
   14.4410   99.3690   50.9640 H   0  0  0  0  0  0
   16.1120  101.6720   54.3760 H   0  0  0  0  0  0
   18.2430  101.5700   50.6470 H   0  0  0  0  0  0
   12.5840   99.2390   52.1030 H   0  0  0  0  0  0
   10.7560   98.7040   53.7960 H   0  0  0  0  0  0
   14.1414   99.8135   57.6238 H   0  0  0  0  0  0
    9.4110  101.4100   59.7190 H   0  0  0  0  0  0
    9.6520   99.2900   61.1000 H   0  0  0  0  0  0
   13.2680   98.2410   58.8240 H   0  0  0  0  0  0
   10.7496   97.2709   61.6947 H   0  0  0  0  0  0
   14.6160   94.8480   61.7860 H   0  0  0  0  0  0
   14.5990   93.1860   63.6910 H   0  0  0  0  0  0
   10.3400   94.1640   64.4500 H   0  0  0  0  0  0
   10.3440   95.7830   62.5950 H   0  0  0  0  0  0
   13.2755   91.9162   65.3825 H   0  0  0  0  0  0
   12.2856   93.0852   66.3207 H   0  0  0  0  0  0
   11.1140   91.4567   63.2331 H   0  0  0  0  0  0
   12.1524   90.2108   64.0052 H   0  0  0  0  0  0
    9.0808   90.3301   64.0787 H   0  0  0  0  0  0
   10.0879   89.1651   63.1540 H   0  0  0  0  0  0
    9.0798   87.2456   66.2031 H   0  0  0  0  0  0
    9.0365   87.2427   64.4074 H   0  0  0  0  0  0
    8.0199   88.4024   65.3284 H   0  0  0  0  0  0
    9.1279   90.2218   66.6468 H   0  0  0  0  0  0
   10.1567   88.9738   67.4281 H   0  0  0  0  0  0
   12.2064   90.0701   66.5571 H   0  0  0  0  0  0
   11.2306   91.2504   67.4960 H   0  0  0  0  0  0
   10.0887  102.8665   58.0670 H   0  0  0  0  0  0
   10.8574  102.1168   56.6269 H   0  0  0  0  0  0
   11.8633  103.0019   57.8234 H   0  0  0  0  0  0
   14.9632  100.8099   55.4136 H   0  0  0  0  0  0
   11.0856   99.2307   56.1792 H   0  0  0  0  0  0
   13.4357  101.4435   57.3561 H   0  0  0  0  0  0
  1  2  1  0  0  0
  1  6  1  0  0  0
  1 38  1  0  0  0
  2  3  1  0  0  0
  2 39  1  0  0  0
  3  4  1  0  0  0
  3  7  1  0  0  0
  4  5  1  0  0  0
  4 40  1  0  0  0
  5  6  1  0  0  0
  6 41  1  0  0  0
  7  8  1  0  0  0
  7 12  1  0  0  0
  8  9  1  0  0  0
  8 42  1  0  0  0
  9 10  1  0  0  0
  9 43  1  0  0  0
 10 11  1  0  0  0
 10 70  1  0  0  0
 11 12  1  0  0  0
 11 13  1  0  0  0
 12 69  1  0  0  0
 13 14  1  0  0  0
 13 44  1  0  0  0
 13 71  1  0  0  0
 14 15  1  0  0  0
 14 19  1  0  0  0
 15 16  1  0  0  0
 15 37  1  0  0  0
 16 17  1  0  0  0
 16 45  1  0  0  0
 17 18  1  0  0  0
 17 46  1  0  0  0
 18 19  1  0  0  0
 18 20  1  0  0  0
 19 47  1  0  0  0
 20 21  1  0  0  0
 20 48  1  0  0  0
 21 22  1  0  0  0
 21 36  1  0  0  0
 22 23  1  0  0  0
 22 27  1  0  0  0
 23 24  1  0  0  0
 23 49  1  0  0  0
 24 25  1  0  0  0
 24 50  1  0  0  0
 25 26  1  0  0  0
 25 28  1  0  0  0
 26 27  1  0  0  0
 26 51  1  0  0  0
 27 52  1  0  0  0
 28 29  1  0  0  0
 28 53  1  0  0  0
 28 54  1  0  0  0
 29 30  1  0  0  0
 29 35  1  0  0  0
 30 31  1  0  0  0
 30 55  1  0  0  0
 30 56  1  0  0  0
 31 32  1  0  0  0
 31 57  1  0  0  0
 31 58  1  0  0  0
 32 33  1  0  0  0
 32 34  1  0  0  0
 33 59  1  0  0  0
 33 60  1  0  0  0
 33 61  1  0  0  0
 34 35  1  0  0  0
 34 62  1  0  0  0
 34 63  1  0  0  0
 35 64  1  0  0  0
 35 65  1  0  0  0
 37 66  1  0  0  0
 37 67  1  0  0  0
 37 68  1  0  0  0
M  CHG  3  10   1  12   1  13   1
M  END
> <s_m_source_file>
/Users/choderaj/github/choderalab/mcce-charges/mcce-charges.jchodera/epik_inhibitors/output/Imatinib/Imatinib-input.mol2

> <i_m_source_file_index>
1

> <r_epik_Ionization_Penalty>
  4.5357

> <r_epik_Ionization_Penalty_Charging>
  2.4734

> <r_epik_Ionization_Penalty_Neutral>
  2.0623

> <r_epik_State_Penalty>
  4.2865

> <i_epik_Tot_Q>
3

$$$$
STI
                    3D
 Structure written by MMmdl.
 69 73  0  0  1  0            999 V2000
   16.3560  100.4060   50.6140 C   0  0  0  0  0  0
   15.2180  100.0120   51.4140 C   0  0  0  0  0  0
   15.0890  100.4530   52.7980 C   0  0  3  0  0  0
   16.1380  101.2980   53.3390 C   0  0  0  0  0  0
   17.2200  101.6600   52.5430 N   0  0  0  0  0  0
   17.3560  101.2430   51.2150 C   0  0  0  0  0  0
   13.9280  100.0780   53.6730 C   0  0  3  0  0  0
   12.7230   99.4700   53.1730 C   0  0  0  0  0  0
   11.7040   99.1720   54.1140 C   0  0  0  0  0  0
   11.8810   99.4640   55.4560 N   0  0  0  0  0  0
   13.0530  100.0500   55.9070 C   0  0  3  0  0  0
   14.0460  100.3450   55.0230 N   0  0  0  0  0  0
   13.2630  100.3620   57.2530 N   0  3  0  0  0  0
   12.3020  100.1090   58.2460 C   0  0  3  0  0  0
   11.1950  101.0400   58.4880 C   0  0  3  0  0  0
   10.2510  100.7220   59.5240 C   0  0  0  0  0  0
   10.3860   99.5200   60.3090 C   0  0  0  0  0  0
   11.4560   98.6100   60.0860 C   0  0  3  0  0  0
   12.4240   98.9210   59.0320 C   0  0  0  0  0  0
   11.5160   97.4360   60.9230 N   0  0  0  0  0  0
   12.4460   96.4150   60.9100 C   0  0  3  0  0  0
   12.4720   95.4420   62.0420 C   0  0  3  0  0  0
   13.6890   94.6960   62.3640 C   0  0  0  0  0  0
   13.6820   93.7490   63.4490 C   0  0  0  0  0  0
   12.4630   93.5460   64.2140 C   0  0  3  0  0  0
   11.2740   94.3010   63.8790 C   0  0  0  0  0  0
   11.2720   95.2300   62.8170 C   0  0  0  0  0  0
   12.3710   92.5420   65.3680 C   0  0  0  0  0  0
   11.2300   91.5790   65.3640 N   0  0  0  0  0  0
   11.2140   90.7780   64.0930 C   0  0  0  0  0  0
   10.0310   89.7760   64.0670 C   0  0  0  0  0  0
   10.0810   88.8580   65.2780 N   0  0  0  0  0  0
    8.9850   87.8750   65.3060 C   0  0  0  0  0  0
   10.0700   89.6590   66.5720 C   0  0  0  0  0  0
   11.2730   90.6520   66.5740 C   0  0  0  0  0  0
   13.2580   96.2310   60.0240 O   0  0  0  0  0  0
   10.9860  102.3510   57.6940 C   0  0  0  0  0  0
   16.4590  100.0740   49.5660 H   0  0  0  0  0  0
   14.4410   99.3690   50.9640 H   0  0  0  0  0  0
   16.1120  101.6720   54.3760 H   0  0  0  0  0  0
   18.2430  101.5700   50.6470 H   0  0  0  0  0  0
   12.5840   99.2390   52.1030 H   0  0  0  0  0  0
   10.7560   98.7040   53.7960 H   0  0  0  0  0  0
   14.1414   99.8135   57.6238 H   0  0  0  0  0  0
    9.4110  101.4100   59.7190 H   0  0  0  0  0  0
    9.6520   99.2900   61.1000 H   0  0  0  0  0  0
   13.2680   98.2410   58.8240 H   0  0  0  0  0  0
   10.7496   97.2709   61.6947 H   0  0  0  0  0  0
   14.6160   94.8480   61.7860 H   0  0  0  0  0  0
   14.5990   93.1860   63.6910 H   0  0  0  0  0  0
   10.3400   94.1640   64.4500 H   0  0  0  0  0  0
   10.3440   95.7830   62.5950 H   0  0  0  0  0  0
   13.2755   91.9162   65.3825 H   0  0  0  0  0  0
   12.2856   93.0852   66.3207 H   0  0  0  0  0  0
   11.1140   91.4567   63.2331 H   0  0  0  0  0  0
   12.1524   90.2108   64.0052 H   0  0  0  0  0  0
    9.0808   90.3301   64.0787 H   0  0  0  0  0  0
   10.0879   89.1651   63.1540 H   0  0  0  0  0  0
    9.0798   87.2456   66.2031 H   0  0  0  0  0  0
    9.0365   87.2427   64.4074 H   0  0  0  0  0  0
    8.0199   88.4024   65.3284 H   0  0  0  0  0  0
    9.1279   90.2218   66.6468 H   0  0  0  0  0  0
   10.1567   88.9738   67.4281 H   0  0  0  0  0  0
   12.2064   90.0701   66.5571 H   0  0  0  0  0  0
   11.2306   91.2504   67.4960 H   0  0  0  0  0  0
   10.0887  102.8665   58.0670 H   0  0  0  0  0  0
   10.8574  102.1168   56.6269 H   0  0  0  0  0  0
   11.8633  103.0019   57.8234 H   0  0  0  0  0  0
   13.4357  101.4435   57.3561 H   0  0  0  0  0  0
  1  2  1  0  0  0
  1  6  1  0  0  0
  1 38  1  0  0  0
  2  3  1  0  0  0
  2 39  1  0  0  0
  3  4  1  0  0  0
  3  7  1  0  0  0
  4  5  1  0  0  0
  4 40  1  0  0  0
  5  6  1  0  0  0
  6 41  1  0  0  0
  7  8  1  0  0  0
  7 12  1  0  0  0
  8  9  1  0  0  0
  8 42  1  0  0  0
  9 10  1  0  0  0
  9 43  1  0  0  0
 10 11  1  0  0  0
 11 12  1  0  0  0
 11 13  1  0  0  0
 13 14  1  0  0  0
 13 44  1  0  0  0
 13 69  1  0  0  0
 14 15  1  0  0  0
 14 19  1  0  0  0
 15 16  1  0  0  0
 15 37  1  0  0  0
 16 17  1  0  0  0
 16 45  1  0  0  0
 17 18  1  0  0  0
 17 46  1  0  0  0
 18 19  1  0  0  0
 18 20  1  0  0  0
 19 47  1  0  0  0
 20 21  1  0  0  0
 20 48  1  0  0  0
 21 22  1  0  0  0
 21 36  1  0  0  0
 22 23  1  0  0  0
 22 27  1  0  0  0
 23 24  1  0  0  0
 23 49  1  0  0  0
 24 25  1  0  0  0
 24 50  1  0  0  0
 25 26  1  0  0  0
 25 28  1  0  0  0
 26 27  1  0  0  0
 26 51  1  0  0  0
 27 52  1  0  0  0
 28 29  1  0  0  0
 28 53  1  0  0  0
 28 54  1  0  0  0
 29 30  1  0  0  0
 29 35  1  0  0  0
 30 31  1  0  0  0
 30 55  1  0  0  0
 30 56  1  0  0  0
 31 32  1  0  0  0
 31 57  1  0  0  0
 31 58  1  0  0  0
 32 33  1  0  0  0
 32 34  1  0  0  0
 33 59  1  0  0  0
 33 60  1  0  0  0
 33 61  1  0  0  0
 34 35  1  0  0  0
 34 62  1  0  0  0
 34 63  1  0  0  0
 35 64  1  0  0  0
 35 65  1  0  0  0
 37 66  1  0  0  0
 37 67  1  0  0  0
 37 68  1  0  0  0
M  CHG  1  13   1
M  END
> <s_m_source_file>
/Users/choderaj/github/choderalab/mcce-charges/mcce-charges.jchodera/epik_inhibitors/output/Imatinib/Imatinib-input.mol2

> <i_m_source_file_index>
1

> <r_epik_Ionization_Penalty>
  2.5003

> <r_epik_Ionization_Penalty_Charging>
  0.0000

> <r_epik_Ionization_Penalty_Neutral>
  2.5003

> <r_epik_State_Penalty>
  4.3015

> <i_epik_Tot_Q>
1

$$$$
STI
                    3D
 Structure written by MMmdl.
 70 74  0  0  1  0            999 V2000
   16.3560  100.4060   50.6140 C   0  0  0  0  0  0
   15.2180  100.0120   51.4140 C   0  0  0  0  0  0
   15.0890  100.4530   52.7980 C   0  0  3  0  0  0
   16.1380  101.2980   53.3390 C   0  0  0  0  0  0
   17.2200  101.6600   52.5430 N   0  0  0  0  0  0
   17.3560  101.2430   51.2150 C   0  0  0  0  0  0
   13.9280  100.0780   53.6730 C   0  0  3  0  0  0
   12.7230   99.4700   53.1730 C   0  0  0  0  0  0
   11.7040   99.1720   54.1140 C   0  0  0  0  0  0
   11.8810   99.4640   55.4560 N   0  0  0  0  0  0
   13.0530  100.0500   55.9070 C   0  0  3  0  0  0
   14.0460  100.3450   55.0230 N   0  3  0  0  0  0
   13.2630  100.3620   57.2530 N   0  3  0  0  0  0
   12.3020  100.1090   58.2460 C   0  0  3  0  0  0
   11.1950  101.0400   58.4880 C   0  0  3  0  0  0
   10.2510  100.7220   59.5240 C   0  0  0  0  0  0
   10.3860   99.5200   60.3090 C   0  0  0  0  0  0
   11.4560   98.6100   60.0860 C   0  0  3  0  0  0
   12.4240   98.9210   59.0320 C   0  0  0  0  0  0
   11.5160   97.4360   60.9230 N   0  0  0  0  0  0
   12.4460   96.4150   60.9100 C   0  0  3  0  0  0
   12.4720   95.4420   62.0420 C   0  0  3  0  0  0
   13.6890   94.6960   62.3640 C   0  0  0  0  0  0
   13.6820   93.7490   63.4490 C   0  0  0  0  0  0
   12.4630   93.5460   64.2140 C   0  0  3  0  0  0
   11.2740   94.3010   63.8790 C   0  0  0  0  0  0
   11.2720   95.2300   62.8170 C   0  0  0  0  0  0
   12.3710   92.5420   65.3680 C   0  0  0  0  0  0
   11.2300   91.5790   65.3640 N   0  0  0  0  0  0
   11.2140   90.7780   64.0930 C   0  0  0  0  0  0
   10.0310   89.7760   64.0670 C   0  0  0  0  0  0
   10.0810   88.8580   65.2780 N   0  0  0  0  0  0
    8.9850   87.8750   65.3060 C   0  0  0  0  0  0
   10.0700   89.6590   66.5720 C   0  0  0  0  0  0
   11.2730   90.6520   66.5740 C   0  0  0  0  0  0
   13.2580   96.2310   60.0240 O   0  0  0  0  0  0
   10.9860  102.3510   57.6940 C   0  0  0  0  0  0
   16.4590  100.0740   49.5660 H   0  0  0  0  0  0
   14.4410   99.3690   50.9640 H   0  0  0  0  0  0
   16.1120  101.6720   54.3760 H   0  0  0  0  0  0
   18.2430  101.5700   50.6470 H   0  0  0  0  0  0
   12.5840   99.2390   52.1030 H   0  0  0  0  0  0
   10.7560   98.7040   53.7960 H   0  0  0  0  0  0
   14.1414   99.8135   57.6238 H   0  0  0  0  0  0
    9.4110  101.4100   59.7190 H   0  0  0  0  0  0
    9.6520   99.2900   61.1000 H   0  0  0  0  0  0
   13.2680   98.2410   58.8240 H   0  0  0  0  0  0
   10.7496   97.2709   61.6947 H   0  0  0  0  0  0
   14.6160   94.8480   61.7860 H   0  0  0  0  0  0
   14.5990   93.1860   63.6910 H   0  0  0  0  0  0
   10.3400   94.1640   64.4500 H   0  0  0  0  0  0
   10.3440   95.7830   62.5950 H   0  0  0  0  0  0
   13.2755   91.9162   65.3825 H   0  0  0  0  0  0
   12.2856   93.0852   66.3207 H   0  0  0  0  0  0
   11.1140   91.4567   63.2331 H   0  0  0  0  0  0
   12.1524   90.2108   64.0052 H   0  0  0  0  0  0
    9.0808   90.3301   64.0787 H   0  0  0  0  0  0
   10.0879   89.1651   63.1540 H   0  0  0  0  0  0
    9.0798   87.2456   66.2031 H   0  0  0  0  0  0
    9.0365   87.2427   64.4074 H   0  0  0  0  0  0
    8.0199   88.4024   65.3284 H   0  0  0  0  0  0
    9.1279   90.2218   66.6468 H   0  0  0  0  0  0
   10.1567   88.9738   67.4281 H   0  0  0  0  0  0
   12.2064   90.0701   66.5571 H   0  0  0  0  0  0
   11.2306   91.2504   67.4960 H   0  0  0  0  0  0
   10.0887  102.8665   58.0670 H   0  0  0  0  0  0
   10.8574  102.1168   56.6269 H   0  0  0  0  0  0
   11.8633  103.0019   57.8234 H   0  0  0  0  0  0
   13.4357  101.4435   57.3561 H   0  0  0  0  0  0
   14.9632  100.8099   55.4136 H   0  0  0  0  0  0
  1  2  1  0  0  0
  1  6  1  0  0  0
  1 38  1  0  0  0
  2  3  1  0  0  0
  2 39  1  0  0  0
  3  4  1  0  0  0
  3  7  1  0  0  0
  4  5  1  0  0  0
  4 40  1  0  0  0
  5  6  1  0  0  0
  6 41  1  0  0  0
  7  8  1  0  0  0
  7 12  1  0  0  0
  8  9  1  0  0  0
  8 42  1  0  0  0
  9 10  1  0  0  0
  9 43  1  0  0  0
 10 11  1  0  0  0
 11 12  1  0  0  0
 11 13  1  0  0  0
 12 70  1  0  0  0
 13 14  1  0  0  0
 13 44  1  0  0  0
 13 69  1  0  0  0
 14 15  1  0  0  0
 14 19  1  0  0  0
 15 16  1  0  0  0
 15 37  1  0  0  0
 16 17  1  0  0  0
 16 45  1  0  0  0
 17 18  1  0  0  0
 17 46  1  0  0  0
 18 19  1  0  0  0
 18 20  1  0  0  0
 19 47  1  0  0  0
 20 21  1  0  0  0
 20 48  1  0  0  0
 21 22  1  0  0  0
 21 36  1  0  0  0
 22 23  1  0  0  0
 22 27  1  0  0  0
 23 24  1  0  0  0
 23 49  1  0  0  0
 24 25  1  0  0  0
 24 50  1  0  0  0
 25 26  1  0  0  0
 25 28  1  0  0  0
 26 27  1  0  0  0
 26 51  1  0  0  0
 27 52  1  0  0  0
 28 29  1  0  0  0
 28 53  1  0  0  0
 28 54  1  0  0  0
 29 30  1  0  0  0
 29 35  1  0  0  0
 30 31  1  0  0  0
 30 55  1  0  0  0
 30 56  1  0  0  0
 31 32  1  0  0  0
 31 57  1  0  0  0
 31 58  1  0  0  0
 32 33  1  0  0  0
 32 34  1  0  0  0
 33 59  1  0  0  0
 33 60  1  0  0  0
 33 61  1  0  0  0
 34 35  1  0  0  0
 34 62  1  0  0  0
 34 63  1  0  0  0
 35 64  1  0  0  0
 35 65  1  0  0  0
 37 66  1  0  0  0
 37 67  1  0  0  0
 37 68  1  0  0  0
M  CHG  2  12   1  13   1
M  END
> <s_m_source_file>
/Users/choderaj/github/choderalab/mcce-charges/mcce-charges.jchodera/epik_inhibitors/output/Imatinib/Imatinib-input.mol2

> <i_m_source_file_index>
1

> <r_epik_Ionization_Penalty>
  2.5969

> <r_epik_Ionization_Penalty_Charging>
  0.5346

> <r_epik_Ionization_Penalty_Neutral>
  2.0623

> <r_epik_State_Penalty>
  4.5341

> <i_epik_Tot_Q>
2

$$$$
STI
                    3D
 Structure written by MMmdl.
 71 75  0  0  1  0            999 V2000
   16.3560  100.4060   50.6140 C   0  0  0  0  0  0
   15.2180  100.0120   51.4140 C   0  0  0  0  0  0
   15.0890  100.4530   52.7980 C   0  0  3  0  0  0
   16.1380  101.2980   53.3390 C   0  0  0  0  0  0
   17.2200  101.6600   52.5430 N   0  0  0  0  0  0
   17.3560  101.2430   51.2150 C   0  0  0  0  0  0
   13.9280  100.0780   53.6730 C   0  0  3  0  0  0
   12.7230   99.4700   53.1730 C   0  0  0  0  0  0
   11.7040   99.1720   54.1140 C   0  0  0  0  0  0
   11.8810   99.4640   55.4560 N   0  3  0  0  0  0
   13.0530  100.0500   55.9070 C   0  0  3  0  0  0
   14.0460  100.3450   55.0230 N   0  0  0  0  0  0
   13.2630  100.3620   57.2530 N   0  3  0  0  0  0
   12.3020  100.1090   58.2460 C   0  0  3  0  0  0
   11.1950  101.0400   58.4880 C   0  0  3  0  0  0
   10.2510  100.7220   59.5240 C   0  0  0  0  0  0
   10.3860   99.5200   60.3090 C   0  0  0  0  0  0
   11.4560   98.6100   60.0860 C   0  0  3  0  0  0
   12.4240   98.9210   59.0320 C   0  0  0  0  0  0
   11.5160   97.4360   60.9230 N   0  0  0  0  0  0
   12.4460   96.4150   60.9100 C   0  0  3  0  0  0
   12.4720   95.4420   62.0420 C   0  0  3  0  0  0
   13.6890   94.6960   62.3640 C   0  0  0  0  0  0
   13.6820   93.7490   63.4490 C   0  0  0  0  0  0
   12.4630   93.5460   64.2140 C   0  0  3  0  0  0
   11.2740   94.3010   63.8790 C   0  0  0  0  0  0
   11.2720   95.2300   62.8170 C   0  0  0  0  0  0
   12.3710   92.5420   65.3680 C   0  0  0  0  0  0
   11.2300   91.5790   65.3640 N   0  3  0  0  0  0
   11.2140   90.7780   64.0930 C   0  0  0  0  0  0
   10.0310   89.7760   64.0670 C   0  0  0  0  0  0
   10.0810   88.8580   65.2780 N   0  0  0  0  0  0
    8.9850   87.8750   65.3060 C   0  0  0  0  0  0
   10.0700   89.6590   66.5720 C   0  0  0  0  0  0
   11.2730   90.6520   66.5740 C   0  0  0  0  0  0
   13.2580   96.2310   60.0240 O   0  0  0  0  0  0
   10.9860  102.3510   57.6940 C   0  0  0  0  0  0
   16.4590  100.0740   49.5660 H   0  0  0  0  0  0
   14.4410   99.3690   50.9640 H   0  0  0  0  0  0
   16.1120  101.6720   54.3760 H   0  0  0  0  0  0
   18.2430  101.5700   50.6470 H   0  0  0  0  0  0
   12.5840   99.2390   52.1030 H   0  0  0  0  0  0
   10.7560   98.7040   53.7960 H   0  0  0  0  0  0
   14.1414   99.8135   57.6238 H   0  0  0  0  0  0
    9.4110  101.4100   59.7190 H   0  0  0  0  0  0
    9.6520   99.2900   61.1000 H   0  0  0  0  0  0
   13.2680   98.2410   58.8240 H   0  0  0  0  0  0
   10.7496   97.2709   61.6947 H   0  0  0  0  0  0
   14.6160   94.8480   61.7860 H   0  0  0  0  0  0
   14.5990   93.1860   63.6910 H   0  0  0  0  0  0
   10.3400   94.1640   64.4500 H   0  0  0  0  0  0
   10.3440   95.7830   62.5950 H   0  0  0  0  0  0
   13.2755   91.9162   65.3825 H   0  0  0  0  0  0
   12.2856   93.0852   66.3207 H   0  0  0  0  0  0
   11.1140   91.4567   63.2331 H   0  0  0  0  0  0
   12.1524   90.2108   64.0052 H   0  0  0  0  0  0
    9.0808   90.3301   64.0787 H   0  0  0  0  0  0
   10.0879   89.1651   63.1540 H   0  0  0  0  0  0
    9.0798   87.2456   66.2031 H   0  0  0  0  0  0
    9.0365   87.2427   64.4074 H   0  0  0  0  0  0
    8.0199   88.4024   65.3284 H   0  0  0  0  0  0
    9.1279   90.2218   66.6468 H   0  0  0  0  0  0
   10.1567   88.9738   67.4281 H   0  0  0  0  0  0
   12.2064   90.0701   66.5571 H   0  0  0  0  0  0
   11.2306   91.2504   67.4960 H   0  0  0  0  0  0
   10.0887  102.8665   58.0670 H   0  0  0  0  0  0
   10.8574  102.1168   56.6269 H   0  0  0  0  0  0
   11.8633  103.0019   57.8234 H   0  0  0  0  0  0
   13.4357  101.4435   57.3561 H   0  0  0  0  0  0
   10.3106   92.1812   65.4089 H   0  0  0  0  0  0
   11.0856   99.2307   56.1792 H   0  0  0  0  0  0
  1  2  1  0  0  0
  1  6  1  0  0  0
  1 38  1  0  0  0
  2  3  1  0  0  0
  2 39  1  0  0  0
  3  4  1  0  0  0
  3  7  1  0  0  0
  4  5  1  0  0  0
  4 40  1  0  0  0
  5  6  1  0  0  0
  6 41  1  0  0  0
  7  8  1  0  0  0
  7 12  1  0  0  0
  8  9  1  0  0  0
  8 42  1  0  0  0
  9 10  1  0  0  0
  9 43  1  0  0  0
 10 11  1  0  0  0
 10 71  1  0  0  0
 11 12  1  0  0  0
 11 13  1  0  0  0
 13 14  1  0  0  0
 13 44  1  0  0  0
 13 69  1  0  0  0
 14 15  1  0  0  0
 14 19  1  0  0  0
 15 16  1  0  0  0
 15 37  1  0  0  0
 16 17  1  0  0  0
 16 45  1  0  0  0
 17 18  1  0  0  0
 17 46  1  0  0  0
 18 19  1  0  0  0
 18 20  1  0  0  0
 19 47  1  0  0  0
 20 21  1  0  0  0
 20 48  1  0  0  0
 21 22  1  0  0  0
 21 36  1  0  0  0
 22 23  1  0  0  0
 22 27  1  0  0  0
 23 24  1  0  0  0
 23 49  1  0  0  0
 24 25  1  0  0  0
 24 50  1  0  0  0
 25 26  1  0  0  0
 25 28  1  0  0  0
 26 27  1  0  0  0
 26 51  1  0  0  0
 27 52  1  0  0  0
 28 29  1  0  0  0
 28 53  1  0  0  0
 28 54  1  0  0  0
 29 30  1  0  0  0
 29 35  1  0  0  0
 29 70  1  0  0  0
 30 31  1  0  0  0
 30 55  1  0  0  0
 30 56  1  0  0  0
 31 32  1  0  0  0
 31 57  1  0  0  0
 31 58  1  0  0  0
 32 33  1  0  0  0
 32 34  1  0  0  0
 33 59  1  0  0  0
 33 60  1  0  0  0
 33 61  1  0  0  0
 34 35  1  0  0  0
 34 62  1  0  0  0
 34 63  1  0  0  0
 35 64  1  0  0  0
 35 65  1  0  0  0
 37 66  1  0  0  0
 37 67  1  0  0  0
 37 68  1  0  0  0
M  CHG  3  10   1  13   1  29   1
M  END
> <s_m_source_file>
/Users/choderaj/github/choderalab/mcce-charges/mcce-charges.jchodera/epik_inhibitors/output/Imatinib/Imatinib-input.mol2

> <i_m_source_file_index>
1

> <r_epik_Ionization_Penalty>
  1.1526

> <r_epik_Ionization_Penalty_Charging>
  1.1522

> <r_epik_Ionization_Penalty_Neutral>
  0.0004

> <r_epik_State_Penalty>
  4.5697

> <i_epik_Tot_Q>
3

$$$$
