@<TRIPOS>MOLECULE
4-[(4-methylpiperazin-1-ium-1-yl)methyl]-~{N}-[4-methyl-3-[[4-(3-pyridyl)pyrimidin-2-yl]amino]phenyl]benzamide
   69    73     0     0     0
SMALL
USER_CHARGES

@<TRIPOS>ATOM
      1 C1         -2.2404   -7.1062   10.2698 C.ar      1 <0>        -0.3996
      2 C2         -2.2225   -6.0497    9.3822 C.ar      1 <0>         0.5436
      3 C3         -2.1261   -6.2718    7.9594 C.ar      1 <0>        -0.2843
      4 C4         -1.4605   -7.3756    7.4511 C.ar      1 <0>         0.4195
      5 N1         -1.3338   -7.6417    6.1317 N.ar      1 <0>        -0.6663
      6 C5         -1.9031   -6.7563    5.2835 C.ar      1 <0>         0.4130
      7 C6         -2.5897   -5.6235    5.6902 C.ar      1 <0>        -0.2539
      8 C7         -2.6987   -5.3839    7.0555 C.ar      1 <0>        -0.0497
      9 N2         -2.2911   -4.7552    9.7563 N.ar      1 <0>        -0.7466
     10 C8         -2.3803   -4.5515   11.0844 C.ar      1 <0>         0.8754
     11 N3         -2.4535   -3.2106   11.5116 N.pl3     1 <0>        -0.7248
     12 C9         -2.4532   -1.9825   10.8141 C.ar      1 <0>         0.1691
     13 C10        -3.1249   -0.8719   11.3251 C.ar      1 <0>        -0.1161
     14 C11        -3.1148    0.3333   10.6229 C.ar      1 <0>        -0.0935
     15 C12        -2.4330    0.4279    9.4097 C.ar      1 <0>        -0.1507
     16 C13        -1.7613   -0.6828    8.8987 C.ar      1 <0>         0.0549
     17 C14        -1.7714   -1.8879    9.6010 C.ar      1 <0>        -0.1596
     18 N4         -1.0683   -0.5860    7.6657 N.am      1 <0>        -0.4516
     19 C15        -0.3483   -1.5855    7.0095 C.2       1 <0>         0.6694
     20 C16         0.2872   -1.1552    5.7742 C.ar      1 <0>        -0.1031
     21 C17         0.6454    0.1820    5.6035 C.ar      1 <0>        -0.0786
     22 C18         1.2550    0.5951    4.4188 C.ar      1 <0>        -0.1217
     23 C19         1.5062   -0.3291    3.4047 C.ar      1 <0>        -0.1518
     24 C20         1.1479   -1.6664    3.5754 C.ar      1 <0>        -0.1217
     25 C21         0.5384   -2.0794    4.7601 C.ar      1 <0>        -0.0786
     26 C22         2.1604    0.1160    2.1288 C.3       1 <0>         0.1728
     27 N5          3.2187   -0.8002    1.7081 N.4       1 <0>        -0.6892
     28 C23         4.4328   -0.5968    2.5079 C.3       1 <0>         0.1078
     29 C24         5.5443   -1.5548    2.0658 C.3       1 <0>         0.1428
     30 N6          5.8387   -1.3892    0.6372 N.3       1 <0>        -0.7398
     31 C25         4.6249   -1.5935   -0.1628 C.3       1 <0>         0.1428
     32 C26         3.5125   -0.6365    0.2792 C.3       1 <0>         0.1078
     33 C27         6.8981   -2.3037    0.2160 C.3       1 <0>         0.1519
     34 O1         -0.2094   -2.7337    7.4258 O.2       1 <0>        -0.5718
     35 C28        -3.8632   -0.9449   12.6220 C.3       1 <0>        -0.0606
     36 N7         -2.4066   -5.4922   12.0477 N.ar      1 <0>        -0.7419
     37 C29        -2.3347   -6.7641   11.6033 C.ar      1 <0>         0.4586
     38 H1         -2.1849   -8.1410    9.9553 H         1 <0>         0.1644
     39 H2         -0.9921   -8.1070    8.1036 H         1 <0>         0.0239
     40 H3         -1.7894   -6.9877    4.2294 H         1 <0>         0.0301
     41 H4         -3.0278   -4.9455    4.9667 H         1 <0>         0.1507
     42 H5         -3.2322   -4.5016    7.4003 H         1 <0>         0.1545
     43 H6         -2.5279   -2.9784   12.5842 H         1 <0>         0.4506
     44 H7         -3.6349    1.2043   11.0128 H         1 <0>         0.1437
     45 H8         -2.4315    1.3721    8.8710 H         1 <0>         0.1722
     46 H9         -1.2476   -2.7542    9.2020 H         1 <0>         0.1463
     47 H10        -1.0604    0.3647    7.1124 H         1 <0>         0.3190
     48 H11         0.4548    0.9109    6.3872 H         1 <0>         0.1719
     49 H12         1.5303    1.6391    4.2946 H         1 <0>         0.1391
     50 H13         1.3397   -2.3930    2.7904 H         1 <0>         0.1391
     51 H14         0.2637   -3.1239    4.8822 H         1 <0>         0.1719
     52 H15         1.4079    0.1628    1.3278 H         1 <0>         0.1063
     53 H16         2.6051    1.1118    2.2727 H         1 <0>         0.1063
     54 H17         4.7859    0.4373    2.3819 H         1 <0>         0.1098
     55 H18         4.2081   -0.7808    3.5689 H         1 <0>         0.1098
     56 H19         6.4579   -1.3473    2.6421 H         1 <0>         0.0746
     57 H20         5.2262   -2.5926    2.2440 H         1 <0>         0.0746
     58 H21         4.8497   -1.4091   -1.2237 H         1 <0>         0.0746
     59 H22         4.2726   -2.6280   -0.0370 H         1 <0>         0.0746
     60 H23         2.6074   -0.8507   -0.3081 H         1 <0>         0.1098
     61 H24         3.8378    0.3967    0.0877 H         1 <0>         0.1098
     62 H25         7.1007   -2.1613   -0.8558 H         1 <0>         0.0577
     63 H26         6.5792   -3.3412    0.3943 H         1 <0>         0.0577
     64 H27         7.8118   -2.0968    0.7925 H         1 <0>         0.0577
     65 H28        -4.3183    0.0325   12.8404 H         1 <0>         0.0511
     66 H29        -3.1635   -1.2118   13.4277 H         1 <0>         0.0511
     67 H30        -4.6514   -1.7091   12.5527 H         1 <0>         0.0511
     68 H31        -2.3561   -7.5262   12.3750 H         1 <0>         0.0279
     69 H32         2.8592   -1.8263    1.8747 H         1 <0>         0.4441
@<TRIPOS>BOND
     1    1   37 ar
     2    1    2 ar
     3    1   38 1
     4    2    3 1
     5    2    9 ar
     6    3    8 ar
     7    3    4 ar
     8    4    5 ar
     9    4   39 1
    10    5    6 ar
    11    6    7 ar
    12    6   40 1
    13    7    8 ar
    14    7   41 1
    15    8   42 1
    16    9   10 ar
    17   10   11 1
    18   10   36 ar
    19   11   12 1
    20   11   43 1
    21   12   17 ar
    22   12   13 ar
    23   13   14 ar
    24   13   35 1
    25   14   15 ar
    26   14   44 1
    27   15   16 ar
    28   15   45 1
    29   16   17 ar
    30   16   18 1
    31   17   46 1
    32   18   19 am
    33   18   47 1
    34   19   20 1
    35   19   34 2
    36   20   25 ar
    37   20   21 ar
    38   21   22 ar
    39   21   48 1
    40   22   23 ar
    41   22   49 1
    42   23   24 ar
    43   23   26 1
    44   24   25 ar
    45   24   50 1
    46   25   51 1
    47   26   27 1
    48   26   52 1
    49   26   53 1
    50   27   32 1
    51   27   28 1
    52   27   69 1
    53   28   29 1
    54   28   54 1
    55   28   55 1
    56   29   30 1
    57   29   56 1
    58   29   57 1
    59   30   31 1
    60   30   33 1
    61   31   32 1
    62   31   58 1
    63   31   59 1
    64   32   60 1
    65   32   61 1
    66   33   62 1
    67   33   63 1
    68   33   64 1
    69   35   65 1
    70   35   66 1
    71   35   67 1
    72   36   37 ar
    73   37   68 1
@<TRIPOS>MOLECULE
4-[(4-methylpiperazin-4-ium-1-yl)methyl]-~{N}-[4-methyl-3-[[4-(3-pyridyl)pyrimidin-2-yl]amino]phenyl]benzamide
   69    73     0     0     0
SMALL
USER_CHARGES

@<TRIPOS>ATOM
      1 C1         -2.2404   -7.1062   10.2698 C.ar      1 <0>        -0.3982
      2 C2         -2.2225   -6.0497    9.3822 C.ar      1 <0>         0.5327
      3 C3         -2.1261   -6.2718    7.9594 C.ar      1 <0>        -0.2770
      4 C4         -1.4605   -7.3756    7.4511 C.ar      1 <0>         0.4174
      5 N1         -1.3338   -7.6417    6.1317 N.ar      1 <0>        -0.6646
      6 C5         -1.9031   -6.7563    5.2835 C.ar      1 <0>         0.4056
      7 C6         -2.5897   -5.6235    5.6902 C.ar      1 <0>        -0.2500
      8 C7         -2.6987   -5.3839    7.0555 C.ar      1 <0>        -0.0580
      9 N2         -2.2911   -4.7552    9.7563 N.ar      1 <0>        -0.7437
     10 C8         -2.3803   -4.5515   11.0844 C.ar      1 <0>         0.8796
     11 N3         -2.4535   -3.2106   11.5116 N.pl3     1 <0>        -0.7366
     12 C9         -2.4532   -1.9825   10.8141 C.ar      1 <0>         0.1738
     13 C10        -3.1249   -0.8719   11.3251 C.ar      1 <0>        -0.0690
     14 C11        -3.1148    0.3333   10.6229 C.ar      1 <0>        -0.1016
     15 C12        -2.4330    0.4279    9.4097 C.ar      1 <0>        -0.1521
     16 C13        -1.7613   -0.6828    8.8987 C.ar      1 <0>         0.0640
     17 C14        -1.7714   -1.8879    9.6010 C.ar      1 <0>        -0.2111
     18 N4         -1.0683   -0.5860    7.6657 N.am      1 <0>        -0.4615
     19 C15        -0.3483   -1.5855    7.0095 C.2       1 <0>         0.6765
     20 C16         0.2872   -1.1552    5.7742 C.ar      1 <0>        -0.1288
     21 C17         0.6454    0.1820    5.6035 C.ar      1 <0>        -0.0891
     22 C18         1.2550    0.5951    4.4188 C.ar      1 <0>        -0.1244
     23 C19         1.5062   -0.3291    3.4047 C.ar      1 <0>        -0.0988
     24 C20         1.1479   -1.6664    3.5754 C.ar      1 <0>        -0.1244
     25 C21         0.5384   -2.0794    4.7601 C.ar      1 <0>        -0.0891
     26 C22         2.1604    0.1160    2.1288 C.3       1 <0>         0.2221
     27 N5          3.2187   -0.8002    1.7081 N.3       1 <0>        -0.7503
     28 C23         4.4328   -0.5968    2.5079 C.3       1 <0>         0.1480
     29 C24         5.5443   -1.5548    2.0658 C.3       1 <0>         0.1073
     30 N6          5.8387   -1.3892    0.6372 N.4       1 <0>        -0.6840
     31 C25         4.6249   -1.5935   -0.1628 C.3       1 <0>         0.1073
     32 C26         3.5125   -0.6365    0.2792 C.3       1 <0>         0.1480
     33 C27         6.8981   -2.3037    0.2160 C.3       1 <0>         0.0840
     34 O1         -0.2094   -2.7337    7.4258 O.2       1 <0>        -0.5782
     35 C28        -3.8632   -0.9449   12.6220 C.3       1 <0>        -0.0524
     36 N7         -2.4066   -5.4922   12.0477 N.ar      1 <0>        -0.7307
     37 C29        -2.3347   -6.7641   11.6033 C.ar      1 <0>         0.4577
     38 H1         -2.1849   -8.1410    9.9553 H         1 <0>         0.1648
     39 H2         -0.9921   -8.1070    8.1036 H         1 <0>         0.0266
     40 H3         -1.7894   -6.9877    4.2294 H         1 <0>         0.0272
     41 H4         -3.0278   -4.9455    4.9667 H         1 <0>         0.1489
     42 H5         -3.2322   -4.5016    7.4003 H         1 <0>         0.1503
     43 H6         -2.5279   -2.9784   12.5842 H         1 <0>         0.4499
     44 H7         -3.6349    1.2043   11.0128 H         1 <0>         0.1423
     45 H8         -2.4315    1.3721    8.8710 H         1 <0>         0.1731
     46 H9         -1.2476   -2.7542    9.2020 H         1 <0>         0.1285
     47 H10        -1.0604    0.3647    7.1124 H         1 <0>         0.3180
     48 H11         0.4548    0.9109    6.3872 H         1 <0>         0.1584
     49 H12         1.5303    1.6391    4.2946 H         1 <0>         0.1409
     50 H13         1.3397   -2.3930    2.7904 H         1 <0>         0.1409
     51 H14         0.2637   -3.1239    4.8822 H         1 <0>         0.1584
     52 H15         1.4079    0.1628    1.3278 H         1 <0>         0.0589
     53 H16         2.6051    1.1118    2.2727 H         1 <0>         0.0589
     54 H17         4.7859    0.4373    2.3819 H         1 <0>         0.0779
     55 H18         4.2081   -0.7808    3.5689 H         1 <0>         0.0779
     56 H19         6.4579   -1.3473    2.6421 H         1 <0>         0.1106
     57 H20         5.2262   -2.5926    2.2440 H         1 <0>         0.1106
     58 H21         4.8497   -1.4091   -1.2237 H         1 <0>         0.1106
     59 H22         4.2726   -2.6280   -0.0370 H         1 <0>         0.1106
     60 H23         2.6074   -0.8507   -0.3081 H         1 <0>         0.0779
     61 H24         3.8378    0.3967    0.0877 H         1 <0>         0.0779
     62 H25         7.1007   -2.1613   -0.8558 H         1 <0>         0.1059
     63 H26         6.5792   -3.3412    0.3943 H         1 <0>         0.1059
     64 H27         7.8118   -2.0968    0.7925 H         1 <0>         0.1059
     65 H28        -4.3183    0.0325   12.8404 H         1 <0>         0.0520
     66 H29        -3.1635   -1.2118   13.4277 H         1 <0>         0.0520
     67 H30        -4.6514   -1.7091   12.5527 H         1 <0>         0.0520
     68 H31        -2.3561   -7.5262   12.3750 H         1 <0>         0.0312
     69 H32         6.1974   -0.3626    0.4714 H         1 <0>         0.4453
@<TRIPOS>BOND
     1    1   37 ar
     2    1    2 ar
     3    1   38 1
     4    2    3 1
     5    2    9 ar
     6    3    8 ar
     7    3    4 ar
     8    4    5 ar
     9    4   39 1
    10    5    6 ar
    11    6    7 ar
    12    6   40 1
    13    7    8 ar
    14    7   41 1
    15    8   42 1
    16    9   10 ar
    17   10   11 1
    18   10   36 ar
    19   11   12 1
    20   11   43 1
    21   12   17 ar
    22   12   13 ar
    23   13   14 ar
    24   13   35 1
    25   14   15 ar
    26   14   44 1
    27   15   16 ar
    28   15   45 1
    29   16   17 ar
    30   16   18 1
    31   17   46 1
    32   18   19 am
    33   18   47 1
    34   19   20 1
    35   19   34 2
    36   20   25 ar
    37   20   21 ar
    38   21   22 ar
    39   21   48 1
    40   22   23 ar
    41   22   49 1
    42   23   24 ar
    43   23   26 1
    44   24   25 ar
    45   24   50 1
    46   25   51 1
    47   26   27 1
    48   26   52 1
    49   26   53 1
    50   27   32 1
    51   27   28 1
    52   28   29 1
    53   28   54 1
    54   28   55 1
    55   29   30 1
    56   29   56 1
    57   29   57 1
    58   30   31 1
    59   30   33 1
    60   30   69 1
    61   31   32 1
    62   31   58 1
    63   31   59 1
    64   32   60 1
    65   32   61 1
    66   33   62 1
    67   33   63 1
    68   33   64 1
    69   35   65 1
    70   35   66 1
    71   35   67 1
    72   36   37 ar
    73   37   68 1
@<TRIPOS>MOLECULE
4-[(4-methylpiperazin-1-yl)methyl]-~{N}-[4-methyl-3-[[4-(3-pyridyl)pyrimidin-2-yl]amino]phenyl]benzamide
   68    72     0     0     0
SMALL
USER_CHARGES

@<TRIPOS>ATOM
      1 C1         -2.2404   -7.1062   10.2698 C.ar      1 <0>        -0.4096
      2 C2         -2.2225   -6.0497    9.3822 C.ar      1 <0>         0.5362
      3 C3         -2.1261   -6.2718    7.9594 C.ar      1 <0>        -0.2733
      4 C4         -1.4605   -7.3756    7.4511 C.ar      1 <0>         0.4308
      5 N1         -1.3338   -7.6417    6.1317 N.ar      1 <0>        -0.6658
      6 C5         -1.9031   -6.7563    5.2835 C.ar      1 <0>         0.4044
      7 C6         -2.5897   -5.6235    5.6902 C.ar      1 <0>        -0.2507
      8 C7         -2.6987   -5.3839    7.0555 C.ar      1 <0>        -0.0712
      9 N2         -2.2911   -4.7552    9.7563 N.ar      1 <0>        -0.7480
     10 C8         -2.3803   -4.5515   11.0844 C.ar      1 <0>         0.8873
     11 N3         -2.4535   -3.2106   11.5116 N.pl3     1 <0>        -0.7211
     12 C9         -2.4532   -1.9825   10.8141 C.ar      1 <0>         0.1771
     13 C10        -3.1249   -0.8719   11.3251 C.ar      1 <0>        -0.1447
     14 C11        -3.1148    0.3333   10.6229 C.ar      1 <0>        -0.0878
     15 C12        -2.4330    0.4279    9.4097 C.ar      1 <0>        -0.1677
     16 C13        -1.7613   -0.6828    8.8987 C.ar      1 <0>         0.0846
     17 C14        -1.7714   -1.8879    9.6010 C.ar      1 <0>        -0.1862
     18 N4         -1.0683   -0.5860    7.6657 N.am      1 <0>        -0.4688
     19 C15        -0.3483   -1.5855    7.0095 C.2       1 <0>         0.6835
     20 C16         0.2872   -1.1552    5.7742 C.ar      1 <0>        -0.1522
     21 C17         0.6454    0.1820    5.6035 C.ar      1 <0>        -0.0934
     22 C18         1.2550    0.5951    4.4188 C.ar      1 <0>        -0.1271
     23 C19         1.5062   -0.3291    3.4047 C.ar      1 <0>        -0.0604
     24 C20         1.1479   -1.6664    3.5754 C.ar      1 <0>        -0.1271
     25 C21         0.5384   -2.0794    4.7601 C.ar      1 <0>        -0.0934
     26 C22         2.1604    0.1160    2.1288 C.3       1 <0>         0.2167
     27 N5          3.2187   -0.8002    1.7081 N.3       1 <0>        -0.7462
     28 C23         4.4328   -0.5968    2.5079 C.3       1 <0>         0.1754
     29 C24         5.5443   -1.5548    2.0658 C.3       1 <0>         0.1709
     30 N6          5.8387   -1.3892    0.6372 N.3       1 <0>        -0.7398
     31 C25         4.6249   -1.5935   -0.1628 C.3       1 <0>         0.1709
     32 C26         3.5125   -0.6365    0.2792 C.3       1 <0>         0.1754
     33 C27         6.8981   -2.3037    0.2160 C.3       1 <0>         0.1609
     34 O1         -0.2094   -2.7337    7.4258 O.2       1 <0>        -0.5862
     35 C28        -3.8632   -0.9449   12.6220 C.3       1 <0>        -0.0531
     36 N7         -2.4066   -5.4922   12.0477 N.ar      1 <0>        -0.7390
     37 C29        -2.3347   -6.7641   11.6033 C.ar      1 <0>         0.4620
     38 H1         -2.1849   -8.1410    9.9553 H         1 <0>         0.1588
     39 H2         -0.9921   -8.1070    8.1036 H         1 <0>         0.0335
     40 H3         -1.7894   -6.9877    4.2294 H         1 <0>         0.0247
     41 H4         -3.0278   -4.9455    4.9667 H         1 <0>         0.1463
     42 H5         -3.2322   -4.5016    7.4003 H         1 <0>         0.1439
     43 H6         -2.5279   -2.9784   12.5842 H         1 <0>         0.4543
     44 H7         -3.6349    1.2043   11.0128 H         1 <0>         0.1366
     45 H8         -2.4315    1.3721    8.8710 H         1 <0>         0.1763
     46 H9         -1.2476   -2.7542    9.2020 H         1 <0>         0.1534
     47 H10        -1.0604    0.3647    7.1124 H         1 <0>         0.3225
     48 H11         0.4548    0.9109    6.3872 H         1 <0>         0.1467
     49 H12         1.5303    1.6391    4.2946 H         1 <0>         0.1452
     50 H13         1.3397   -2.3930    2.7904 H         1 <0>         0.1452
     51 H14         0.2637   -3.1239    4.8822 H         1 <0>         0.1467
     52 H15         1.4079    0.1628    1.3278 H         1 <0>         0.0433
     53 H16         2.6051    1.1118    2.2727 H         1 <0>         0.0433
     54 H17         4.7859    0.4373    2.3819 H         1 <0>         0.0379
     55 H18         4.2081   -0.7808    3.5689 H         1 <0>         0.0379
     56 H19         6.4579   -1.3473    2.6421 H         1 <0>         0.0372
     57 H20         5.2262   -2.5926    2.2440 H         1 <0>         0.0372
     58 H21         4.8497   -1.4091   -1.2237 H         1 <0>         0.0372
     59 H22         4.2726   -2.6280   -0.0370 H         1 <0>         0.0372
     60 H23         2.6074   -0.8507   -0.3081 H         1 <0>         0.0379
     61 H24         3.8378    0.3967    0.0877 H         1 <0>         0.0379
     62 H25         7.1007   -2.1613   -0.8558 H         1 <0>         0.0323
     63 H26         6.5792   -3.3412    0.3943 H         1 <0>         0.0323
     64 H27         7.8118   -2.0968    0.7925 H         1 <0>         0.0323
     65 H28        -4.3183    0.0325   12.8404 H         1 <0>         0.0437
     66 H29        -3.1635   -1.2118   13.4277 H         1 <0>         0.0437
     67 H30        -4.6514   -1.7091   12.5527 H         1 <0>         0.0437
     68 H31        -2.3561   -7.5262   12.3750 H         1 <0>         0.0273
@<TRIPOS>BOND
     1    1   37 ar
     2    1    2 ar
     3    1   38 1
     4    2    3 1
     5    2    9 ar
     6    3    8 ar
     7    3    4 ar
     8    4    5 ar
     9    4   39 1
    10    5    6 ar
    11    6    7 ar
    12    6   40 1
    13    7    8 ar
    14    7   41 1
    15    8   42 1
    16    9   10 ar
    17   10   11 1
    18   10   36 ar
    19   11   12 1
    20   11   43 1
    21   12   17 ar
    22   12   13 ar
    23   13   14 ar
    24   13   35 1
    25   14   15 ar
    26   14   44 1
    27   15   16 ar
    28   15   45 1
    29   16   17 ar
    30   16   18 1
    31   17   46 1
    32   18   19 am
    33   18   47 1
    34   19   20 1
    35   19   34 2
    36   20   25 ar
    37   20   21 ar
    38   21   22 ar
    39   21   48 1
    40   22   23 ar
    41   22   49 1
    42   23   24 ar
    43   23   26 1
    44   24   25 ar
    45   24   50 1
    46   25   51 1
    47   26   27 1
    48   26   52 1
    49   26   53 1
    50   27   32 1
    51   27   28 1
    52   28   29 1
    53   28   54 1
    54   28   55 1
    55   29   30 1
    56   29   56 1
    57   29   57 1
    58   30   31 1
    59   30   33 1
    60   31   32 1
    61   31   58 1
    62   31   59 1
    63   32   60 1
    64   32   61 1
    65   33   62 1
    66   33   63 1
    67   33   64 1
    68   35   65 1
    69   35   66 1
    70   35   67 1
    71   36   37 ar
    72   37   68 1
@<TRIPOS>MOLECULE
4-[(4-methylpiperazin-1-ium-1-yl)methyl]-~{N}-[4-methyl-3-[(4-pyridin-1-ium-3-ylpyrimidin-2-yl)amino]phenyl]benzamide
   70    74     0     0     0
SMALL
USER_CHARGES

@<TRIPOS>ATOM
      1 C1         -2.2404   -7.1062   10.2698 C.ar      1 <0>        -0.4129
      2 C2         -2.2225   -6.0497    9.3822 C.ar      1 <0>         0.4989
      3 C3         -2.1261   -6.2718    7.9594 C.ar      1 <0>        -0.1338
      4 C4         -1.4605   -7.3756    7.4511 C.ar      1 <0>        -0.0226
      5 N1         -1.3338   -7.6417    6.1317 N.ar      1 <0>        -0.0830
      6 C5         -1.9031   -6.7563    5.2835 C.ar      1 <0>        -0.0173
      7 C6         -2.5897   -5.6235    5.6902 C.ar      1 <0>        -0.1436
      8 C7         -2.6987   -5.3839    7.0555 C.ar      1 <0>         0.0265
      9 N2         -2.2911   -4.7552    9.7563 N.ar      1 <0>        -0.7736
     10 C8         -2.3803   -4.5515   11.0844 C.ar      1 <0>         0.9127
     11 N3         -2.4535   -3.2106   11.5116 N.pl3     1 <0>        -0.7156
     12 C9         -2.4532   -1.9825   10.8141 C.ar      1 <0>         0.1458
     13 C10        -3.1249   -0.8719   11.3251 C.ar      1 <0>        -0.1028
     14 C11        -3.1148    0.3333   10.6229 C.ar      1 <0>        -0.0913
     15 C12        -2.4330    0.4279    9.4097 C.ar      1 <0>        -0.1363
     16 C13        -1.7613   -0.6828    8.8987 C.ar      1 <0>         0.0659
     17 C14        -1.7714   -1.8879    9.6010 C.ar      1 <0>        -0.1599
     18 N4         -1.0683   -0.5860    7.6657 N.am      1 <0>        -0.4622
     19 C15        -0.3483   -1.5855    7.0095 C.2       1 <0>         0.6750
     20 C16         0.2872   -1.1552    5.7742 C.ar      1 <0>        -0.1125
     21 C17         0.6454    0.1820    5.6035 C.ar      1 <0>        -0.0766
     22 C18         1.2550    0.5951    4.4188 C.ar      1 <0>        -0.1214
     23 C19         1.5062   -0.3291    3.4047 C.ar      1 <0>        -0.1441
     24 C20         1.1479   -1.6664    3.5754 C.ar      1 <0>        -0.1214
     25 C21         0.5384   -2.0794    4.7601 C.ar      1 <0>        -0.0766
     26 C22         2.1604    0.1160    2.1288 C.3       1 <0>         0.1665
     27 N5          3.2187   -0.8002    1.7081 N.4       1 <0>        -0.6883
     28 C23         4.4328   -0.5968    2.5079 C.3       1 <0>         0.1077
     29 C24         5.5443   -1.5548    2.0658 C.3       1 <0>         0.1446
     30 N6          5.8387   -1.3892    0.6372 N.3       1 <0>        -0.7428
     31 C25         4.6249   -1.5935   -0.1628 C.3       1 <0>         0.1446
     32 C26         3.5125   -0.6365    0.2792 C.3       1 <0>         0.1077
     33 C27         6.8981   -2.3037    0.2160 C.3       1 <0>         0.1522
     34 O1         -0.2094   -2.7337    7.4258 O.2       1 <0>        -0.5572
     35 C28        -3.8632   -0.9449   12.6220 C.3       1 <0>        -0.0580
     36 N7         -2.4066   -5.4922   12.0477 N.ar      1 <0>        -0.7040
     37 C29        -2.3347   -6.7641   11.6033 C.ar      1 <0>         0.4851
     38 H1         -2.1849   -8.1410    9.9553 H         1 <0>         0.1574
     39 H2         -0.9921   -8.1070    8.1036 H         1 <0>         0.2135
     40 H3         -1.7894   -6.9877    4.2294 H         1 <0>         0.2180
     41 H4         -3.0278   -4.9455    4.9667 H         1 <0>         0.2064
     42 H5         -3.2322   -4.5016    7.4003 H         1 <0>         0.2097
     43 H6         -2.5279   -2.9784   12.5842 H         1 <0>         0.4633
     44 H7         -3.6349    1.2043   11.0128 H         1 <0>         0.1538
     45 H8         -2.4315    1.3721    8.8710 H         1 <0>         0.1828
     46 H9         -1.2476   -2.7542    9.2020 H         1 <0>         0.1413
     47 H10        -1.0604    0.3647    7.1124 H         1 <0>         0.3199
     48 H11         0.4548    0.9109    6.3872 H         1 <0>         0.1704
     49 H12         1.5303    1.6391    4.2946 H         1 <0>         0.1420
     50 H13         1.3397   -2.3930    2.7904 H         1 <0>         0.1420
     51 H14         0.2637   -3.1239    4.8822 H         1 <0>         0.1704
     52 H15         1.4079    0.1628    1.3278 H         1 <0>         0.1085
     53 H16         2.6051    1.1118    2.2727 H         1 <0>         0.1085
     54 H17         4.7859    0.4373    2.3819 H         1 <0>         0.1093
     55 H18         4.2081   -0.7808    3.5689 H         1 <0>         0.1093
     56 H19         6.4579   -1.3473    2.6421 H         1 <0>         0.0761
     57 H20         5.2262   -2.5926    2.2440 H         1 <0>         0.0761
     58 H21         4.8497   -1.4091   -1.2237 H         1 <0>         0.0761
     59 H22         4.2726   -2.6280   -0.0370 H         1 <0>         0.0761
     60 H23         2.6074   -0.8507   -0.3081 H         1 <0>         0.1093
     61 H24         3.8378    0.3967    0.0877 H         1 <0>         0.1093
     62 H25         7.1007   -2.1613   -0.8558 H         1 <0>         0.0596
     63 H26         6.5792   -3.3412    0.3943 H         1 <0>         0.0596
     64 H27         7.8118   -2.0968    0.7925 H         1 <0>         0.0596
     65 H28        -4.3183    0.0325   12.8404 H         1 <0>         0.0517
     66 H29        -3.1635   -1.2118   13.4277 H         1 <0>         0.0517
     67 H30        -4.6514   -1.7091   12.5527 H         1 <0>         0.0517
     68 H31        -2.3561   -7.5262   12.3750 H         1 <0>         0.0489
     69 H32         2.8592   -1.8263    1.8747 H         1 <0>         0.4455
     70 H33        -0.7903   -8.5392    5.8013 H         1 <0>         0.3469
@<TRIPOS>BOND
     1    1   37 ar
     2    1    2 ar
     3    1   38 1
     4    2    3 1
     5    2    9 ar
     6    3    8 ar
     7    3    4 ar
     8    4    5 ar
     9    4   39 1
    10    5    6 ar
    11    5   70 1
    12    6    7 ar
    13    6   40 1
    14    7    8 ar
    15    7   41 1
    16    8   42 1
    17    9   10 ar
    18   10   11 1
    19   10   36 ar
    20   11   12 1
    21   11   43 1
    22   12   17 ar
    23   12   13 ar
    24   13   14 ar
    25   13   35 1
    26   14   15 ar
    27   14   44 1
    28   15   16 ar
    29   15   45 1
    30   16   17 ar
    31   16   18 1
    32   17   46 1
    33   18   19 am
    34   18   47 1
    35   19   20 1
    36   19   34 2
    37   20   25 ar
    38   20   21 ar
    39   21   22 ar
    40   21   48 1
    41   22   23 ar
    42   22   49 1
    43   23   24 ar
    44   23   26 1
    45   24   25 ar
    46   24   50 1
    47   25   51 1
    48   26   27 1
    49   26   52 1
    50   26   53 1
    51   27   32 1
    52   27   28 1
    53   27   69 1
    54   28   29 1
    55   28   54 1
    56   28   55 1
    57   29   30 1
    58   29   56 1
    59   29   57 1
    60   30   31 1
    61   30   33 1
    62   31   32 1
    63   31   58 1
    64   31   59 1
    65   32   60 1
    66   32   61 1
    67   33   62 1
    68   33   63 1
    69   33   64 1
    70   35   65 1
    71   35   66 1
    72   35   67 1
    73   36   37 ar
    74   37   68 1
@<TRIPOS>MOLECULE
4-[(4-methylpiperazin-4-ium-1-yl)methyl]-~{N}-[4-methyl-3-[(4-pyridin-1-ium-3-ylpyrimidin-2-yl)amino]phenyl]benzamide
   70    74     0     0     0
SMALL
USER_CHARGES

@<TRIPOS>ATOM
      1 C1         -2.2404   -7.1062   10.2698 C.ar      1 <0>        -0.4118
      2 C2         -2.2225   -6.0497    9.3822 C.ar      1 <0>         0.4828
      3 C3         -2.1261   -6.2718    7.9594 C.ar      1 <0>        -0.1310
      4 C4         -1.4605   -7.3756    7.4511 C.ar      1 <0>        -0.0173
      5 N1         -1.3338   -7.6417    6.1317 N.ar      1 <0>        -0.0827
      6 C5         -1.9031   -6.7563    5.2835 C.ar      1 <0>        -0.0214
      7 C6         -2.5897   -5.6235    5.6902 C.ar      1 <0>        -0.1405
      8 C7         -2.6987   -5.3839    7.0555 C.ar      1 <0>         0.0217
      9 N2         -2.2911   -4.7552    9.7563 N.ar      1 <0>        -0.7723
     10 C8         -2.3803   -4.5515   11.0844 C.ar      1 <0>         0.9149
     11 N3         -2.4535   -3.2106   11.5116 N.pl3     1 <0>        -0.7268
     12 C9         -2.4532   -1.9825   10.8141 C.ar      1 <0>         0.1495
     13 C10        -3.1249   -0.8719   11.3251 C.ar      1 <0>        -0.0725
     14 C11        -3.1148    0.3333   10.6229 C.ar      1 <0>        -0.0963
     15 C12        -2.4330    0.4279    9.4097 C.ar      1 <0>        -0.1382
     16 C13        -1.7613   -0.6828    8.8987 C.ar      1 <0>         0.0771
     17 C14        -1.7714   -1.8879    9.6010 C.ar      1 <0>        -0.1999
     18 N4         -1.0683   -0.5860    7.6657 N.am      1 <0>        -0.4681
     19 C15        -0.3483   -1.5855    7.0095 C.2       1 <0>         0.6799
     20 C16         0.2872   -1.1552    5.7742 C.ar      1 <0>        -0.1354
     21 C17         0.6454    0.1820    5.6035 C.ar      1 <0>        -0.0876
     22 C18         1.2550    0.5951    4.4188 C.ar      1 <0>        -0.1236
     23 C19         1.5062   -0.3291    3.4047 C.ar      1 <0>        -0.0891
     24 C20         1.1479   -1.6664    3.5754 C.ar      1 <0>        -0.1236
     25 C21         0.5384   -2.0794    4.7601 C.ar      1 <0>        -0.0876
     26 C22         2.1604    0.1160    2.1288 C.3       1 <0>         0.2200
     27 N5          3.2187   -0.8002    1.7081 N.3       1 <0>        -0.7515
     28 C23         4.4328   -0.5968    2.5079 C.3       1 <0>         0.1478
     29 C24         5.5443   -1.5548    2.0658 C.3       1 <0>         0.1069
     30 N6          5.8387   -1.3892    0.6372 N.4       1 <0>        -0.6833
     31 C25         4.6249   -1.5935   -0.1628 C.3       1 <0>         0.1069
     32 C26         3.5125   -0.6365    0.2792 C.3       1 <0>         0.1478
     33 C27         6.8981   -2.3037    0.2160 C.3       1 <0>         0.0828
     34 O1         -0.2094   -2.7337    7.4258 O.2       1 <0>        -0.5689
     35 C28        -3.8632   -0.9449   12.6220 C.3       1 <0>        -0.0536
     36 N7         -2.4066   -5.4922   12.0477 N.ar      1 <0>        -0.6973
     37 C29        -2.3347   -6.7641   11.6033 C.ar      1 <0>         0.4848
     38 H1         -2.1849   -8.1410    9.9553 H         1 <0>         0.1625
     39 H2         -0.9921   -8.1070    8.1036 H         1 <0>         0.2172
     40 H3         -1.7894   -6.9877    4.2294 H         1 <0>         0.2159
     41 H4         -3.0278   -4.9455    4.9667 H         1 <0>         0.2060
     42 H5         -3.2322   -4.5016    7.4003 H         1 <0>         0.2047
     43 H6         -2.5279   -2.9784   12.5842 H         1 <0>         0.4641
     44 H7         -3.6349    1.2043   11.0128 H         1 <0>         0.1515
     45 H8         -2.4315    1.3721    8.8710 H         1 <0>         0.1838
     46 H9         -1.2476   -2.7542    9.2020 H         1 <0>         0.1309
     47 H10        -1.0604    0.3647    7.1124 H         1 <0>         0.3185
     48 H11         0.4548    0.9109    6.3872 H         1 <0>         0.1571
     49 H12         1.5303    1.6391    4.2946 H         1 <0>         0.1442
     50 H13         1.3397   -2.3930    2.7904 H         1 <0>         0.1442
     51 H14         0.2637   -3.1239    4.8822 H         1 <0>         0.1571
     52 H15         1.4079    0.1628    1.3278 H         1 <0>         0.0600
     53 H16         2.6051    1.1118    2.2727 H         1 <0>         0.0600
     54 H17         4.7859    0.4373    2.3819 H         1 <0>         0.0775
     55 H18         4.2081   -0.7808    3.5689 H         1 <0>         0.0775
     56 H19         6.4579   -1.3473    2.6421 H         1 <0>         0.1122
     57 H20         5.2262   -2.5926    2.2440 H         1 <0>         0.1122
     58 H21         4.8497   -1.4091   -1.2237 H         1 <0>         0.1122
     59 H22         4.2726   -2.6280   -0.0370 H         1 <0>         0.1122
     60 H23         2.6074   -0.8507   -0.3081 H         1 <0>         0.0775
     61 H24         3.8378    0.3967    0.0877 H         1 <0>         0.0775
     62 H25         7.1007   -2.1613   -0.8558 H         1 <0>         0.1076
     63 H26         6.5792   -3.3412    0.3943 H         1 <0>         0.1076
     64 H27         7.8118   -2.0968    0.7925 H         1 <0>         0.1076
     65 H28        -4.3183    0.0325   12.8404 H         1 <0>         0.0514
     66 H29        -3.1635   -1.2118   13.4277 H         1 <0>         0.0514
     67 H30        -4.6514   -1.7091   12.5527 H         1 <0>         0.0514
     68 H31        -2.3561   -7.5262   12.3750 H         1 <0>         0.0516
     69 H32         6.1974   -0.3626    0.4714 H         1 <0>         0.4465
     70 H33        -0.7903   -8.5392    5.8013 H         1 <0>         0.3456
@<TRIPOS>BOND
     1    1   37 ar
     2    1    2 ar
     3    1   38 1
     4    2    3 1
     5    2    9 ar
     6    3    8 ar
     7    3    4 ar
     8    4    5 ar
     9    4   39 1
    10    5    6 ar
    11    5   70 1
    12    6    7 ar
    13    6   40 1
    14    7    8 ar
    15    7   41 1
    16    8   42 1
    17    9   10 ar
    18   10   11 1
    19   10   36 ar
    20   11   12 1
    21   11   43 1
    22   12   17 ar
    23   12   13 ar
    24   13   14 ar
    25   13   35 1
    26   14   15 ar
    27   14   44 1
    28   15   16 ar
    29   15   45 1
    30   16   17 ar
    31   16   18 1
    32   17   46 1
    33   18   19 am
    34   18   47 1
    35   19   20 1
    36   19   34 2
    37   20   25 ar
    38   20   21 ar
    39   21   22 ar
    40   21   48 1
    41   22   23 ar
    42   22   49 1
    43   23   24 ar
    44   23   26 1
    45   24   25 ar
    46   24   50 1
    47   25   51 1
    48   26   27 1
    49   26   52 1
    50   26   53 1
    51   27   32 1
    52   27   28 1
    53   28   29 1
    54   28   54 1
    55   28   55 1
    56   29   30 1
    57   29   56 1
    58   29   57 1
    59   30   31 1
    60   30   33 1
    61   30   69 1
    62   31   32 1
    63   31   58 1
    64   31   59 1
    65   32   60 1
    66   32   61 1
    67   33   62 1
    68   33   63 1
    69   33   64 1
    70   35   65 1
    71   35   66 1
    72   35   67 1
    73   36   37 ar
    74   37   68 1
