@<TRIPOS>MOLECULE
STI
   68    72     1     0     0
SMALL
NO_CHARGES

@<TRIPOS>ATOM
      1  C1        16.3560  100.4060   50.6140 C.ar      1 STI         0.0000
      2  C6        15.2180  100.0120   51.4140 C.ar      1 STI         0.0000
      3  C5        15.0890  100.4530   52.7980 C.ar      1 STI         0.0000
      4  C4        16.1380  101.2980   53.3390 C.ar      1 STI         0.0000
      5  N3        17.2200  101.6600   52.5430 N.ar      1 STI         0.0000
      6  C2        17.3560  101.2430   51.2150 C.ar      1 STI         0.0000
      7  C7        13.9280  100.0780   53.6730 C.ar      1 STI         0.0000
      8  C12       12.7230   99.4700   53.1730 C.ar      1 STI         0.0000
      9  C11       11.7040   99.1720   54.1140 C.ar      1 STI         0.0000
     10  N10       11.8810   99.4640   55.4560 N.ar      1 STI         0.0000
     11  C9        13.0530  100.0500   55.9070 C.ar      1 STI         0.0000
     12  N8        14.0460  100.3450   55.0230 N.ar      1 STI         0.0000
     13  N13       13.2630  100.3620   57.2530 N.pl3     1 STI         0.0000
     14  C14       12.3020  100.1090   58.2460 C.ar      1 STI         0.0000
     15  C19       11.1950  101.0400   58.4880 C.ar      1 STI         0.0000
     16  C18       10.2510  100.7220   59.5240 C.ar      1 STI         0.0000
     17  C17       10.3860   99.5200   60.3090 C.ar      1 STI         0.0000
     18  C16       11.4560   98.6100   60.0860 C.ar      1 STI         0.0000
     19  C15       12.4240   98.9210   59.0320 C.ar      1 STI         0.0000
     20  N21       11.5160   97.4360   60.9230 N.am      1 STI         0.0000
     21  C22       12.4460   96.4150   60.9100 C.2       1 STI         0.0000
     22  C23       12.4720   95.4420   62.0420 C.ar      1 STI         0.0000
     23  C25       13.6890   94.6960   62.3640 C.ar      1 STI         0.0000
     24  C26       13.6820   93.7490   63.4490 C.ar      1 STI         0.0000
     25  C27       12.4630   93.5460   64.2140 C.ar      1 STI         0.0000
     26  C28       11.2740   94.3010   63.8790 C.ar      1 STI         0.0000
     27  C29       11.2720   95.2300   62.8170 C.ar      1 STI         0.0000
     28  C46       12.3710   92.5420   65.3680 C.3       1 STI         0.0000
     29  N48       11.2300   91.5790   65.3640 N.3       1 STI         0.0000
     30  C53       11.2140   90.7780   64.0930 C.3       1 STI         0.0000
     31  C52       10.0310   89.7760   64.0670 C.3       1 STI         0.0000
     32  N51       10.0810   88.8580   65.2780 N.3       1 STI         0.0000
     33  C54        8.9850   87.8750   65.3060 C.3       1 STI         0.0000
     34  C50       10.0700   89.6590   66.5720 C.3       1 STI         0.0000
     35  C49       11.2730   90.6520   66.5740 C.3       1 STI         0.0000
     36  O29       13.2580   96.2310   60.0240 O.2       1 STI         0.0000
     37  C20       10.9860  102.3510   57.6940 C.3       1 STI         0.0000
     38  H11       16.4590  100.0740   49.5660 H         1 STI         0.0000
     39  H61       14.4410   99.3690   50.9640 H         1 STI         0.0000
     40  H41       16.1120  101.6720   54.3760 H         1 STI         0.0000
     41  H21       18.2430  101.5700   50.6470 H         1 STI         0.0000
     42 H121       12.5840   99.2390   52.1030 H         1 STI         0.0000
     43 H111       10.7560   98.7040   53.7960 H         1 STI         0.0000
     44 H131       13.5060  101.3510   57.3050 H         1 STI         0.0000
     45 H181        9.4110  101.4100   59.7190 H         1 STI         0.0000
     46 H171        9.6520   99.2900   61.1000 H         1 STI         0.0000
     47 H151       13.2680   98.2410   58.8240 H         1 STI         0.0000
     48 H211       10.7920   97.3080   61.6300 H         1 STI         0.0000
     49 H251       14.6160   94.8480   61.7860 H         1 STI         0.0000
     50 H261       14.5990   93.1860   63.6910 H         1 STI         0.0000
     51 H281       10.3400   94.1640   64.4500 H         1 STI         0.0000
     52 H291       10.3440   95.7830   62.5950 H         1 STI         0.0000
     53 H461       13.3280   91.9750   65.4380 H         1 STI         0.0000
     54 H462       12.3810   93.0940   66.3360 H         1 STI         0.0000
     55 H531       11.2080   91.4380   63.1940 H         1 STI         0.0000
     56 H532       12.1880   90.2630   63.9230 H         1 STI         0.0000
     57 H521        9.0480   90.2970   63.9820 H         1 STI         0.0000
     58 H522        9.9960   89.2000   63.1120 H         1 STI         0.0000
     59 H541        9.0210   87.2010   66.1940 H         1 STI         0.0000
     60 H542        7.9940   88.3820   65.2330 H         1 STI         0.0000
     61 H543        8.9570   87.2840   64.3600 H         1 STI         0.0000
     62 H501        9.0960   90.1740   66.7410 H         1 STI         0.0000
     63 H502       10.0610   89.0040   67.4740 H         1 STI         0.0000
     64 H491       12.2470   90.1130   66.6420 H         1 STI         0.0000
     65 H492       11.3270   91.2260   67.5270 H         1 STI         0.0000
     66 H201       10.1440  103.0580   57.8780 H         1 STI         0.0000
     67 H202       11.9310  102.9360   57.7710 H         1 STI         0.0000
     68 H203       10.9570  102.0790   56.6120 H         1 STI         0.0000
@<TRIPOS>BOND
     1    1    2 
     2    1    6 
     3    1   38 
     4    2    3 
     5    2   39 
     6    3    4 
     7    3    7 
     8    4    5 
     9    4   40 
    10    5    6 
    11    6   41 
    12    7    8 
    13    7   12 
    14    8    9 
    15    8   42 
    16    9   10 
    17    9   43 
    18   10   11 
    19   11   12 
    20   11   13 
    21   13   14 
    22   13   44 
    23   14   15 
    24   14   19 
    25   15   16 
    26   15   37 
    27   16   17 
    28   16   45 
    29   17   18 
    30   17   46 
    31   18   19 
    32   18   20 
    33   19   47 
    34   20   21 
    35   20   48 
    36   21   22 
    37   21   36 
    38   22   23 
    39   22   27 
    40   23   24 
    41   23   49 
    42   24   25 
    43   24   50 
    44   25   26 
    45   25   28 
    46   26   27 
    47   26   51 
    48   27   52 
    49   28   29 
    50   28   53 
    51   28   54 
    52   29   30 
    53   29   35 
    54   30   31 
    55   30   55 
    56   30   56 
    57   31   32 
    58   31   57 
    59   31   58 
    60   32   33 
    61   32   34 
    62   33   59 
    63   33   60 
    64   33   61 
    65   34   35 
    66   34   62 
    67   34   63 
    68   35   64 
    69   35   65 
    70   37   66 
    71   37   67 
    72   37   68 
@<TRIPOS>SUBSTRUCTURE
     1 STI         1 GROUP 0 A     ****
