4-[(4-methylpiperazin-1-yl)methyl]-~{N}-[4-methyl-3-[[4-(3-pyridyl)pyrimidin-2-yl]amino]phenyl]benzamide
                    3D
 Structure written by MMmdl.
 69 73  0  0  1  0            999 V2000
   -2.2404   -7.1062   10.2698 C   0  0  0  0  0  0
   -2.2225   -6.0497    9.3822 C   0  0  0  0  0  0
   -2.1261   -6.2718    7.9594 C   0  0  0  0  0  0
   -1.4605   -7.3756    7.4511 C   0  0  0  0  0  0
   -1.3338   -7.6417    6.1317 N   0  0  0  0  0  0
   -1.9031   -6.7563    5.2835 C   0  0  0  0  0  0
   -2.5897   -5.6235    5.6902 C   0  0  0  0  0  0
   -2.6987   -5.3839    7.0555 C   0  0  0  0  0  0
   -2.2911   -4.7552    9.7563 N   0  0  0  0  0  0
   -2.3803   -4.5515   11.0844 C   0  0  0  0  0  0
   -2.4535   -3.2106   11.5116 N   0  0  0  0  0  0
   -2.4532   -1.9825   10.8141 C   0  0  0  0  0  0
   -3.1249   -0.8719   11.3251 C   0  0  0  0  0  0
   -3.1148    0.3333   10.6229 C   0  0  0  0  0  0
   -2.4330    0.4279    9.4097 C   0  0  0  0  0  0
   -1.7613   -0.6828    8.8987 C   0  0  0  0  0  0
   -1.7714   -1.8879    9.6010 C   0  0  0  0  0  0
   -1.0683   -0.5860    7.6657 N   0  0  0  0  0  0
   -0.3483   -1.5855    7.0095 C   0  0  0  0  0  0
    0.2872   -1.1552    5.7742 C   0  0  0  0  0  0
    0.6454    0.1820    5.6035 C   0  0  0  0  0  0
    1.2550    0.5951    4.4188 C   0  0  0  0  0  0
    1.5062   -0.3291    3.4047 C   0  0  0  0  0  0
    1.1479   -1.6664    3.5754 C   0  0  0  0  0  0
    0.5384   -2.0794    4.7601 C   0  0  0  0  0  0
    2.1604    0.1160    2.1288 C   0  0  0  0  0  0
    3.2187   -0.8002    1.7081 N   0  3  0  0  0  0
    4.4328   -0.5968    2.5079 C   0  0  0  0  0  0
    5.5443   -1.5548    2.0658 C   0  0  0  0  0  0
    5.8387   -1.3892    0.6372 N   0  0  0  0  0  0
    4.6249   -1.5935   -0.1628 C   0  0  0  0  0  0
    3.5125   -0.6365    0.2792 C   0  0  0  0  0  0
    6.8981   -2.3037    0.2160 C   0  0  0  0  0  0
   -0.2094   -2.7337    7.4258 O   0  0  0  0  0  0
   -3.8632   -0.9449   12.6220 C   0  0  0  0  0  0
   -2.4066   -5.4922   12.0477 N   0  0  0  0  0  0
   -2.3347   -6.7641   11.6033 C   0  0  0  0  0  0
   -2.1849   -8.1410    9.9553 H   0  0  0  0  0  0
   -0.9921   -8.1070    8.1036 H   0  0  0  0  0  0
   -1.7894   -6.9877    4.2294 H   0  0  0  0  0  0
   -3.0278   -4.9455    4.9667 H   0  0  0  0  0  0
   -3.2322   -4.5016    7.4003 H   0  0  0  0  0  0
   -2.5279   -2.9784   12.5842 H   0  0  0  0  0  0
   -3.6349    1.2043   11.0128 H   0  0  0  0  0  0
   -2.4315    1.3721    8.8710 H   0  0  0  0  0  0
   -1.2476   -2.7542    9.2020 H   0  0  0  0  0  0
   -1.0604    0.3647    7.1124 H   0  0  0  0  0  0
    0.4548    0.9109    6.3872 H   0  0  0  0  0  0
    1.5303    1.6391    4.2946 H   0  0  0  0  0  0
    1.3397   -2.3930    2.7904 H   0  0  0  0  0  0
    0.2637   -3.1239    4.8822 H   0  0  0  0  0  0
    1.4079    0.1628    1.3278 H   0  0  0  0  0  0
    2.6051    1.1118    2.2727 H   0  0  0  0  0  0
    4.7859    0.4373    2.3819 H   0  0  0  0  0  0
    4.2081   -0.7808    3.5689 H   0  0  0  0  0  0
    6.4579   -1.3473    2.6421 H   0  0  0  0  0  0
    5.2262   -2.5926    2.2440 H   0  0  0  0  0  0
    4.8497   -1.4091   -1.2237 H   0  0  0  0  0  0
    4.2726   -2.6280   -0.0370 H   0  0  0  0  0  0
    2.6074   -0.8507   -0.3081 H   0  0  0  0  0  0
    3.8378    0.3967    0.0877 H   0  0  0  0  0  0
    7.1007   -2.1613   -0.8558 H   0  0  0  0  0  0
    6.5792   -3.3412    0.3943 H   0  0  0  0  0  0
    7.8118   -2.0968    0.7925 H   0  0  0  0  0  0
   -4.3183    0.0325   12.8404 H   0  0  0  0  0  0
   -3.1635   -1.2118   13.4277 H   0  0  0  0  0  0
   -4.6514   -1.7091   12.5527 H   0  0  0  0  0  0
   -2.3561   -7.5262   12.3750 H   0  0  0  0  0  0
    2.8592   -1.8263    1.8747 H   0  0  0  0  0  0
  1 37  2  0  0  0
  1  2  1  0  0  0
  1 38  1  0  0  0
  2  3  1  0  0  0
  2  9  2  0  0  0
  3  8  2  0  0  0
  3  4  1  0  0  0
  4  5  2  0  0  0
  4 39  1  0  0  0
  5  6  1  0  0  0
  6  7  2  0  0  0
  6 40  1  0  0  0
  7  8  1  0  0  0
  7 41  1  0  0  0
  8 42  1  0  0  0
  9 10  1  0  0  0
 10 11  1  0  0  0
 10 36  2  0  0  0
 11 12  1  0  0  0
 11 43  1  0  0  0
 12 17  2  0  0  0
 12 13  1  0  0  0
 13 14  2  0  0  0
 13 35  1  0  0  0
 14 15  1  0  0  0
 14 44  1  0  0  0
 15 16  2  0  0  0
 15 45  1  0  0  0
 16 17  1  0  0  0
 16 18  1  0  0  0
 17 46  1  0  0  0
 18 19  1  0  0  0
 18 47  1  0  0  0
 19 20  1  0  0  0
 19 34  2  0  0  0
 20 25  2  0  0  0
 20 21  1  0  0  0
 21 22  2  0  0  0
 21 48  1  0  0  0
 22 23  1  0  0  0
 22 49  1  0  0  0
 23 24  2  0  0  0
 23 26  1  0  0  0
 24 25  1  0  0  0
 24 50  1  0  0  0
 25 51  1  0  0  0
 26 27  1  0  0  0
 26 52  1  0  0  0
 26 53  1  0  0  0
 27 32  1  0  0  0
 27 28  1  0  0  0
 27 69  1  0  0  0
 28 29  1  0  0  0
 28 54  1  0  0  0
 28 55  1  0  0  0
 29 30  1  0  0  0
 29 56  1  0  0  0
 29 57  1  0  0  0
 30 31  1  0  0  0
 30 33  1  0  0  0
 31 32  1  0  0  0
 31 58  1  0  0  0
 31 59  1  0  0  0
 32 60  1  0  0  0
 32 61  1  0  0  0
 33 62  1  0  0  0
 33 63  1  0  0  0
 33 64  1  0  0  0
 35 65  1  0  0  0
 35 66  1  0  0  0
 35 67  1  0  0  0
 36 37  1  0  0  0
 37 68  1  0  0  0
M  CHG  1  27   1
M  END
> <s_m_source_file>
/Users/andrea/Development/mcce-charges/epik_inhibitors/output/Imatinib/Imatinib-input.mol2

> <i_m_source_file_index>
1

> <r_lp_tautomer_probability>
0.999999812000036

> <r_epik_Ionization_Penalty>
  0.0388

> <r_epik_Ionization_Penalty_Charging>
  0.0381

> <r_epik_Ionization_Penalty_Neutral>
  0.0008

> <r_epik_State_Penalty>
  0.1972

> <i_epik_Tot_Q>
1

$$$$
4-[(4-methylpiperazin-1-yl)methyl]-~{N}-[4-methyl-3-[[4-(3-pyridyl)pyrimidin-2-yl]amino]phenyl]benzamide
                    3D
 Structure written by MMmdl.
 69 73  0  0  1  0            999 V2000
   -2.2404   -7.1062   10.2698 C   0  0  0  0  0  0
   -2.2225   -6.0497    9.3822 C   0  0  0  0  0  0
   -2.1261   -6.2718    7.9594 C   0  0  0  0  0  0
   -1.4605   -7.3756    7.4511 C   0  0  0  0  0  0
   -1.3338   -7.6417    6.1317 N   0  0  0  0  0  0
   -1.9031   -6.7563    5.2835 C   0  0  0  0  0  0
   -2.5897   -5.6235    5.6902 C   0  0  0  0  0  0
   -2.6987   -5.3839    7.0555 C   0  0  0  0  0  0
   -2.2911   -4.7552    9.7563 N   0  0  0  0  0  0
   -2.3803   -4.5515   11.0844 C   0  0  0  0  0  0
   -2.4535   -3.2106   11.5116 N   0  0  0  0  0  0
   -2.4532   -1.9825   10.8141 C   0  0  0  0  0  0
   -3.1249   -0.8719   11.3251 C   0  0  0  0  0  0
   -3.1148    0.3333   10.6229 C   0  0  0  0  0  0
   -2.4330    0.4279    9.4097 C   0  0  0  0  0  0
   -1.7613   -0.6828    8.8987 C   0  0  0  0  0  0
   -1.7714   -1.8879    9.6010 C   0  0  0  0  0  0
   -1.0683   -0.5860    7.6657 N   0  0  0  0  0  0
   -0.3483   -1.5855    7.0095 C   0  0  0  0  0  0
    0.2872   -1.1552    5.7742 C   0  0  0  0  0  0
    0.6454    0.1820    5.6035 C   0  0  0  0  0  0
    1.2550    0.5951    4.4188 C   0  0  0  0  0  0
    1.5062   -0.3291    3.4047 C   0  0  0  0  0  0
    1.1479   -1.6664    3.5754 C   0  0  0  0  0  0
    0.5384   -2.0794    4.7601 C   0  0  0  0  0  0
    2.1604    0.1160    2.1288 C   0  0  0  0  0  0
    3.2187   -0.8002    1.7081 N   0  0  0  0  0  0
    4.4328   -0.5968    2.5079 C   0  0  0  0  0  0
    5.5443   -1.5548    2.0658 C   0  0  0  0  0  0
    5.8387   -1.3892    0.6372 N   0  3  0  0  0  0
    4.6249   -1.5935   -0.1628 C   0  0  0  0  0  0
    3.5125   -0.6365    0.2792 C   0  0  0  0  0  0
    6.8981   -2.3037    0.2160 C   0  0  0  0  0  0
   -0.2094   -2.7337    7.4258 O   0  0  0  0  0  0
   -3.8632   -0.9449   12.6220 C   0  0  0  0  0  0
   -2.4066   -5.4922   12.0477 N   0  0  0  0  0  0
   -2.3347   -6.7641   11.6033 C   0  0  0  0  0  0
   -2.1849   -8.1410    9.9553 H   0  0  0  0  0  0
   -0.9921   -8.1070    8.1036 H   0  0  0  0  0  0
   -1.7894   -6.9877    4.2294 H   0  0  0  0  0  0
   -3.0278   -4.9455    4.9667 H   0  0  0  0  0  0
   -3.2322   -4.5016    7.4003 H   0  0  0  0  0  0
   -2.5279   -2.9784   12.5842 H   0  0  0  0  0  0
   -3.6349    1.2043   11.0128 H   0  0  0  0  0  0
   -2.4315    1.3721    8.8710 H   0  0  0  0  0  0
   -1.2476   -2.7542    9.2020 H   0  0  0  0  0  0
   -1.0604    0.3647    7.1124 H   0  0  0  0  0  0
    0.4548    0.9109    6.3872 H   0  0  0  0  0  0
    1.5303    1.6391    4.2946 H   0  0  0  0  0  0
    1.3397   -2.3930    2.7904 H   0  0  0  0  0  0
    0.2637   -3.1239    4.8822 H   0  0  0  0  0  0
    1.4079    0.1628    1.3278 H   0  0  0  0  0  0
    2.6051    1.1118    2.2727 H   0  0  0  0  0  0
    4.7859    0.4373    2.3819 H   0  0  0  0  0  0
    4.2081   -0.7808    3.5689 H   0  0  0  0  0  0
    6.4579   -1.3473    2.6421 H   0  0  0  0  0  0
    5.2262   -2.5926    2.2440 H   0  0  0  0  0  0
    4.8497   -1.4091   -1.2237 H   0  0  0  0  0  0
    4.2726   -2.6280   -0.0370 H   0  0  0  0  0  0
    2.6074   -0.8507   -0.3081 H   0  0  0  0  0  0
    3.8378    0.3967    0.0877 H   0  0  0  0  0  0
    7.1007   -2.1613   -0.8558 H   0  0  0  0  0  0
    6.5792   -3.3412    0.3943 H   0  0  0  0  0  0
    7.8118   -2.0968    0.7925 H   0  0  0  0  0  0
   -4.3183    0.0325   12.8404 H   0  0  0  0  0  0
   -3.1635   -1.2118   13.4277 H   0  0  0  0  0  0
   -4.6514   -1.7091   12.5527 H   0  0  0  0  0  0
   -2.3561   -7.5262   12.3750 H   0  0  0  0  0  0
    6.1974   -0.3626    0.4714 H   0  0  0  0  0  0
  1 37  2  0  0  0
  1  2  1  0  0  0
  1 38  1  0  0  0
  2  3  1  0  0  0
  2  9  2  0  0  0
  3  8  2  0  0  0
  3  4  1  0  0  0
  4  5  2  0  0  0
  4 39  1  0  0  0
  5  6  1  0  0  0
  6  7  2  0  0  0
  6 40  1  0  0  0
  7  8  1  0  0  0
  7 41  1  0  0  0
  8 42  1  0  0  0
  9 10  1  0  0  0
 10 11  1  0  0  0
 10 36  2  0  0  0
 11 12  1  0  0  0
 11 43  1  0  0  0
 12 17  2  0  0  0
 12 13  1  0  0  0
 13 14  2  0  0  0
 13 35  1  0  0  0
 14 15  1  0  0  0
 14 44  1  0  0  0
 15 16  2  0  0  0
 15 45  1  0  0  0
 16 17  1  0  0  0
 16 18  1  0  0  0
 17 46  1  0  0  0
 18 19  1  0  0  0
 18 47  1  0  0  0
 19 20  1  0  0  0
 19 34  2  0  0  0
 20 25  2  0  0  0
 20 21  1  0  0  0
 21 22  2  0  0  0
 21 48  1  0  0  0
 22 23  1  0  0  0
 22 49  1  0  0  0
 23 24  2  0  0  0
 23 26  1  0  0  0
 24 25  1  0  0  0
 24 50  1  0  0  0
 25 51  1  0  0  0
 26 27  1  0  0  0
 26 52  1  0  0  0
 26 53  1  0  0  0
 27 32  1  0  0  0
 27 28  1  0  0  0
 28 29  1  0  0  0
 28 54  1  0  0  0
 28 55  1  0  0  0
 29 30  1  0  0  0
 29 56  1  0  0  0
 29 57  1  0  0  0
 30 31  1  0  0  0
 30 33  1  0  0  0
 30 69  1  0  0  0
 31 32  1  0  0  0
 31 58  1  0  0  0
 31 59  1  0  0  0
 32 60  1  0  0  0
 32 61  1  0  0  0
 33 62  1  0  0  0
 33 63  1  0  0  0
 33 64  1  0  0  0
 35 65  1  0  0  0
 35 66  1  0  0  0
 35 67  1  0  0  0
 36 37  1  0  0  0
 37 68  1  0  0  0
M  CHG  1  30   1
M  END
> <s_m_source_file>
/Users/andrea/Development/mcce-charges/epik_inhibitors/output/Imatinib/Imatinib-input.mol2

> <i_m_source_file_index>
1

> <r_epik_Ionization_Penalty>
  0.0796

> <r_epik_Ionization_Penalty_Charging>
  0.0563

> <r_epik_Ionization_Penalty_Neutral>
  0.0234

> <r_epik_State_Penalty>
  0.8105

> <i_epik_Tot_Q>
1

$$$$
4-[(4-methylpiperazin-1-yl)methyl]-~{N}-[4-methyl-3-[[4-(3-pyridyl)pyrimidin-2-yl]amino]phenyl]benzamide
                    3D
 Structure written by MMmdl.
 68 72  0  0  1  0            999 V2000
   -2.2404   -7.1062   10.2698 C   0  0  0  0  0  0
   -2.2225   -6.0497    9.3822 C   0  0  0  0  0  0
   -2.1261   -6.2718    7.9594 C   0  0  0  0  0  0
   -1.4605   -7.3756    7.4511 C   0  0  0  0  0  0
   -1.3338   -7.6417    6.1317 N   0  0  0  0  0  0
   -1.9031   -6.7563    5.2835 C   0  0  0  0  0  0
   -2.5897   -5.6235    5.6902 C   0  0  0  0  0  0
   -2.6987   -5.3839    7.0555 C   0  0  0  0  0  0
   -2.2911   -4.7552    9.7563 N   0  0  0  0  0  0
   -2.3803   -4.5515   11.0844 C   0  0  0  0  0  0
   -2.4535   -3.2106   11.5116 N   0  0  0  0  0  0
   -2.4532   -1.9825   10.8141 C   0  0  0  0  0  0
   -3.1249   -0.8719   11.3251 C   0  0  0  0  0  0
   -3.1148    0.3333   10.6229 C   0  0  0  0  0  0
   -2.4330    0.4279    9.4097 C   0  0  0  0  0  0
   -1.7613   -0.6828    8.8987 C   0  0  0  0  0  0
   -1.7714   -1.8879    9.6010 C   0  0  0  0  0  0
   -1.0683   -0.5860    7.6657 N   0  0  0  0  0  0
   -0.3483   -1.5855    7.0095 C   0  0  0  0  0  0
    0.2872   -1.1552    5.7742 C   0  0  0  0  0  0
    0.6454    0.1820    5.6035 C   0  0  0  0  0  0
    1.2550    0.5951    4.4188 C   0  0  0  0  0  0
    1.5062   -0.3291    3.4047 C   0  0  0  0  0  0
    1.1479   -1.6664    3.5754 C   0  0  0  0  0  0
    0.5384   -2.0794    4.7601 C   0  0  0  0  0  0
    2.1604    0.1160    2.1288 C   0  0  0  0  0  0
    3.2187   -0.8002    1.7081 N   0  0  0  0  0  0
    4.4328   -0.5968    2.5079 C   0  0  0  0  0  0
    5.5443   -1.5548    2.0658 C   0  0  0  0  0  0
    5.8387   -1.3892    0.6372 N   0  0  0  0  0  0
    4.6249   -1.5935   -0.1628 C   0  0  0  0  0  0
    3.5125   -0.6365    0.2792 C   0  0  0  0  0  0
    6.8981   -2.3037    0.2160 C   0  0  0  0  0  0
   -0.2094   -2.7337    7.4258 O   0  0  0  0  0  0
   -3.8632   -0.9449   12.6220 C   0  0  0  0  0  0
   -2.4066   -5.4922   12.0477 N   0  0  0  0  0  0
   -2.3347   -6.7641   11.6033 C   0  0  0  0  0  0
   -2.1849   -8.1410    9.9553 H   0  0  0  0  0  0
   -0.9921   -8.1070    8.1036 H   0  0  0  0  0  0
   -1.7894   -6.9877    4.2294 H   0  0  0  0  0  0
   -3.0278   -4.9455    4.9667 H   0  0  0  0  0  0
   -3.2322   -4.5016    7.4003 H   0  0  0  0  0  0
   -2.5279   -2.9784   12.5842 H   0  0  0  0  0  0
   -3.6349    1.2043   11.0128 H   0  0  0  0  0  0
   -2.4315    1.3721    8.8710 H   0  0  0  0  0  0
   -1.2476   -2.7542    9.2020 H   0  0  0  0  0  0
   -1.0604    0.3647    7.1124 H   0  0  0  0  0  0
    0.4548    0.9109    6.3872 H   0  0  0  0  0  0
    1.5303    1.6391    4.2946 H   0  0  0  0  0  0
    1.3397   -2.3930    2.7904 H   0  0  0  0  0  0
    0.2637   -3.1239    4.8822 H   0  0  0  0  0  0
    1.4079    0.1628    1.3278 H   0  0  0  0  0  0
    2.6051    1.1118    2.2727 H   0  0  0  0  0  0
    4.7859    0.4373    2.3819 H   0  0  0  0  0  0
    4.2081   -0.7808    3.5689 H   0  0  0  0  0  0
    6.4579   -1.3473    2.6421 H   0  0  0  0  0  0
    5.2262   -2.5926    2.2440 H   0  0  0  0  0  0
    4.8497   -1.4091   -1.2237 H   0  0  0  0  0  0
    4.2726   -2.6280   -0.0370 H   0  0  0  0  0  0
    2.6074   -0.8507   -0.3081 H   0  0  0  0  0  0
    3.8378    0.3967    0.0877 H   0  0  0  0  0  0
    7.1007   -2.1613   -0.8558 H   0  0  0  0  0  0
    6.5792   -3.3412    0.3943 H   0  0  0  0  0  0
    7.8118   -2.0968    0.7925 H   0  0  0  0  0  0
   -4.3183    0.0325   12.8404 H   0  0  0  0  0  0
   -3.1635   -1.2118   13.4277 H   0  0  0  0  0  0
   -4.6514   -1.7091   12.5527 H   0  0  0  0  0  0
   -2.3561   -7.5262   12.3750 H   0  0  0  0  0  0
  1 37  2  0  0  0
  1  2  1  0  0  0
  1 38  1  0  0  0
  2  3  1  0  0  0
  2  9  2  0  0  0
  3  8  2  0  0  0
  3  4  1  0  0  0
  4  5  2  0  0  0
  4 39  1  0  0  0
  5  6  1  0  0  0
  6  7  2  0  0  0
  6 40  1  0  0  0
  7  8  1  0  0  0
  7 41  1  0  0  0
  8 42  1  0  0  0
  9 10  1  0  0  0
 10 11  1  0  0  0
 10 36  2  0  0  0
 11 12  1  0  0  0
 11 43  1  0  0  0
 12 17  2  0  0  0
 12 13  1  0  0  0
 13 14  2  0  0  0
 13 35  1  0  0  0
 14 15  1  0  0  0
 14 44  1  0  0  0
 15 16  2  0  0  0
 15 45  1  0  0  0
 16 17  1  0  0  0
 16 18  1  0  0  0
 17 46  1  0  0  0
 18 19  1  0  0  0
 18 47  1  0  0  0
 19 20  1  0  0  0
 19 34  2  0  0  0
 20 25  2  0  0  0
 20 21  1  0  0  0
 21 22  2  0  0  0
 21 48  1  0  0  0
 22 23  1  0  0  0
 22 49  1  0  0  0
 23 24  2  0  0  0
 23 26  1  0  0  0
 24 25  1  0  0  0
 24 50  1  0  0  0
 25 51  1  0  0  0
 26 27  1  0  0  0
 26 52  1  0  0  0
 26 53  1  0  0  0
 27 32  1  0  0  0
 27 28  1  0  0  0
 28 29  1  0  0  0
 28 54  1  0  0  0
 28 55  1  0  0  0
 29 30  1  0  0  0
 29 56  1  0  0  0
 29 57  1  0  0  0
 30 31  1  0  0  0
 30 33  1  0  0  0
 31 32  1  0  0  0
 31 58  1  0  0  0
 31 59  1  0  0  0
 32 60  1  0  0  0
 32 61  1  0  0  0
 33 62  1  0  0  0
 33 63  1  0  0  0
 33 64  1  0  0  0
 35 65  1  0  0  0
 35 66  1  0  0  0
 35 67  1  0  0  0
 36 37  1  0  0  0
 37 68  1  0  0  0
M  END
> <s_m_source_file>
/Users/andrea/Development/mcce-charges/epik_inhibitors/output/Imatinib/Imatinib-input.mol2

> <i_m_source_file_index>
1

> <r_lp_tautomer_probability>
0.999999812000036

> <r_epik_Ionization_Penalty>
  3.0680

> <r_epik_Ionization_Penalty_Charging>
  0.0000

> <r_epik_Ionization_Penalty_Neutral>
  3.0680

> <r_epik_State_Penalty>
  2.1125

> <i_epik_Tot_Q>
0

$$$$
4-[(4-methylpiperazin-1-yl)methyl]-~{N}-[4-methyl-3-[[4-(3-pyridyl)pyrimidin-2-yl]amino]phenyl]benzamide
                    3D
 Structure written by MMmdl.
 70 74  0  0  1  0            999 V2000
   -2.2404   -7.1062   10.2698 C   0  0  0  0  0  0
   -2.2225   -6.0497    9.3822 C   0  0  0  0  0  0
   -2.1261   -6.2718    7.9594 C   0  0  0  0  0  0
   -1.4605   -7.3756    7.4511 C   0  0  0  0  0  0
   -1.3338   -7.6417    6.1317 N   0  3  0  0  0  0
   -1.9031   -6.7563    5.2835 C   0  0  0  0  0  0
   -2.5897   -5.6235    5.6902 C   0  0  0  0  0  0
   -2.6987   -5.3839    7.0555 C   0  0  0  0  0  0
   -2.2911   -4.7552    9.7563 N   0  0  0  0  0  0
   -2.3803   -4.5515   11.0844 C   0  0  0  0  0  0
   -2.4535   -3.2106   11.5116 N   0  0  0  0  0  0
   -2.4532   -1.9825   10.8141 C   0  0  0  0  0  0
   -3.1249   -0.8719   11.3251 C   0  0  0  0  0  0
   -3.1148    0.3333   10.6229 C   0  0  0  0  0  0
   -2.4330    0.4279    9.4097 C   0  0  0  0  0  0
   -1.7613   -0.6828    8.8987 C   0  0  0  0  0  0
   -1.7714   -1.8879    9.6010 C   0  0  0  0  0  0
   -1.0683   -0.5860    7.6657 N   0  0  0  0  0  0
   -0.3483   -1.5855    7.0095 C   0  0  0  0  0  0
    0.2872   -1.1552    5.7742 C   0  0  0  0  0  0
    0.6454    0.1820    5.6035 C   0  0  0  0  0  0
    1.2550    0.5951    4.4188 C   0  0  0  0  0  0
    1.5062   -0.3291    3.4047 C   0  0  0  0  0  0
    1.1479   -1.6664    3.5754 C   0  0  0  0  0  0
    0.5384   -2.0794    4.7601 C   0  0  0  0  0  0
    2.1604    0.1160    2.1288 C   0  0  0  0  0  0
    3.2187   -0.8002    1.7081 N   0  3  0  0  0  0
    4.4328   -0.5968    2.5079 C   0  0  0  0  0  0
    5.5443   -1.5548    2.0658 C   0  0  0  0  0  0
    5.8387   -1.3892    0.6372 N   0  0  0  0  0  0
    4.6249   -1.5935   -0.1628 C   0  0  0  0  0  0
    3.5125   -0.6365    0.2792 C   0  0  0  0  0  0
    6.8981   -2.3037    0.2160 C   0  0  0  0  0  0
   -0.2094   -2.7337    7.4258 O   0  0  0  0  0  0
   -3.8632   -0.9449   12.6220 C   0  0  0  0  0  0
   -2.4066   -5.4922   12.0477 N   0  0  0  0  0  0
   -2.3347   -6.7641   11.6033 C   0  0  0  0  0  0
   -2.1849   -8.1410    9.9553 H   0  0  0  0  0  0
   -0.9921   -8.1070    8.1036 H   0  0  0  0  0  0
   -1.7894   -6.9877    4.2294 H   0  0  0  0  0  0
   -3.0278   -4.9455    4.9667 H   0  0  0  0  0  0
   -3.2322   -4.5016    7.4003 H   0  0  0  0  0  0
   -2.5279   -2.9784   12.5842 H   0  0  0  0  0  0
   -3.6349    1.2043   11.0128 H   0  0  0  0  0  0
   -2.4315    1.3721    8.8710 H   0  0  0  0  0  0
   -1.2476   -2.7542    9.2020 H   0  0  0  0  0  0
   -1.0604    0.3647    7.1124 H   0  0  0  0  0  0
    0.4548    0.9109    6.3872 H   0  0  0  0  0  0
    1.5303    1.6391    4.2946 H   0  0  0  0  0  0
    1.3397   -2.3930    2.7904 H   0  0  0  0  0  0
    0.2637   -3.1239    4.8822 H   0  0  0  0  0  0
    1.4079    0.1628    1.3278 H   0  0  0  0  0  0
    2.6051    1.1118    2.2727 H   0  0  0  0  0  0
    4.7859    0.4373    2.3819 H   0  0  0  0  0  0
    4.2081   -0.7808    3.5689 H   0  0  0  0  0  0
    6.4579   -1.3473    2.6421 H   0  0  0  0  0  0
    5.2262   -2.5926    2.2440 H   0  0  0  0  0  0
    4.8497   -1.4091   -1.2237 H   0  0  0  0  0  0
    4.2726   -2.6280   -0.0370 H   0  0  0  0  0  0
    2.6074   -0.8507   -0.3081 H   0  0  0  0  0  0
    3.8378    0.3967    0.0877 H   0  0  0  0  0  0
    7.1007   -2.1613   -0.8558 H   0  0  0  0  0  0
    6.5792   -3.3412    0.3943 H   0  0  0  0  0  0
    7.8118   -2.0968    0.7925 H   0  0  0  0  0  0
   -4.3183    0.0325   12.8404 H   0  0  0  0  0  0
   -3.1635   -1.2118   13.4277 H   0  0  0  0  0  0
   -4.6514   -1.7091   12.5527 H   0  0  0  0  0  0
   -2.3561   -7.5262   12.3750 H   0  0  0  0  0  0
    2.8592   -1.8263    1.8747 H   0  0  0  0  0  0
   -0.7903   -8.5392    5.8013 H   0  0  0  0  0  0
  1 37  2  0  0  0
  1  2  1  0  0  0
  1 38  1  0  0  0
  2  3  1  0  0  0
  2  9  2  0  0  0
  3  8  2  0  0  0
  3  4  1  0  0  0
  4  5  2  0  0  0
  4 39  1  0  0  0
  5  6  1  0  0  0
  5 70  1  0  0  0
  6  7  2  0  0  0
  6 40  1  0  0  0
  7  8  1  0  0  0
  7 41  1  0  0  0
  8 42  1  0  0  0
  9 10  1  0  0  0
 10 11  1  0  0  0
 10 36  2  0  0  0
 11 12  1  0  0  0
 11 43  1  0  0  0
 12 17  2  0  0  0
 12 13  1  0  0  0
 13 14  2  0  0  0
 13 35  1  0  0  0
 14 15  1  0  0  0
 14 44  1  0  0  0
 15 16  2  0  0  0
 15 45  1  0  0  0
 16 17  1  0  0  0
 16 18  1  0  0  0
 17 46  1  0  0  0
 18 19  1  0  0  0
 18 47  1  0  0  0
 19 20  1  0  0  0
 19 34  2  0  0  0
 20 25  2  0  0  0
 20 21  1  0  0  0
 21 22  2  0  0  0
 21 48  1  0  0  0
 22 23  1  0  0  0
 22 49  1  0  0  0
 23 24  2  0  0  0
 23 26  1  0  0  0
 24 25  1  0  0  0
 24 50  1  0  0  0
 25 51  1  0  0  0
 26 27  1  0  0  0
 26 52  1  0  0  0
 26 53  1  0  0  0
 27 32  1  0  0  0
 27 28  1  0  0  0
 27 69  1  0  0  0
 28 29  1  0  0  0
 28 54  1  0  0  0
 28 55  1  0  0  0
 29 30  1  0  0  0
 29 56  1  0  0  0
 29 57  1  0  0  0
 30 31  1  0  0  0
 30 33  1  0  0  0
 31 32  1  0  0  0
 31 58  1  0  0  0
 31 59  1  0  0  0
 32 60  1  0  0  0
 32 61  1  0  0  0
 33 62  1  0  0  0
 33 63  1  0  0  0
 33 64  1  0  0  0
 35 65  1  0  0  0
 35 66  1  0  0  0
 35 67  1  0  0  0
 36 37  1  0  0  0
 37 68  1  0  0  0
M  CHG  2   5   1  27   1
M  END
> <s_m_source_file>
/Users/andrea/Development/mcce-charges/epik_inhibitors/output/Imatinib/Imatinib-input.mol2

> <i_m_source_file_index>
1

> <r_lp_tautomer_probability>
0.999999812000036

> <r_epik_Ionization_Penalty>
  4.8317

> <r_epik_Ionization_Penalty_Charging>
  4.8311

> <r_epik_Ionization_Penalty_Neutral>
  0.0005

> <r_epik_State_Penalty>
  5.4062

> <i_epik_Tot_Q>
2

$$$$
4-[(4-methylpiperazin-1-yl)methyl]-~{N}-[4-methyl-3-[[4-(3-pyridyl)pyrimidin-2-yl]amino]phenyl]benzamide
                    3D
 Structure written by MMmdl.
 70 74  0  0  1  0            999 V2000
   -2.2404   -7.1062   10.2698 C   0  0  0  0  0  0
   -2.2225   -6.0497    9.3822 C   0  0  0  0  0  0
   -2.1261   -6.2718    7.9594 C   0  0  0  0  0  0
   -1.4605   -7.3756    7.4511 C   0  0  0  0  0  0
   -1.3338   -7.6417    6.1317 N   0  3  0  0  0  0
   -1.9031   -6.7563    5.2835 C   0  0  0  0  0  0
   -2.5897   -5.6235    5.6902 C   0  0  0  0  0  0
   -2.6987   -5.3839    7.0555 C   0  0  0  0  0  0
   -2.2911   -4.7552    9.7563 N   0  0  0  0  0  0
   -2.3803   -4.5515   11.0844 C   0  0  0  0  0  0
   -2.4535   -3.2106   11.5116 N   0  0  0  0  0  0
   -2.4532   -1.9825   10.8141 C   0  0  0  0  0  0
   -3.1249   -0.8719   11.3251 C   0  0  0  0  0  0
   -3.1148    0.3333   10.6229 C   0  0  0  0  0  0
   -2.4330    0.4279    9.4097 C   0  0  0  0  0  0
   -1.7613   -0.6828    8.8987 C   0  0  0  0  0  0
   -1.7714   -1.8879    9.6010 C   0  0  0  0  0  0
   -1.0683   -0.5860    7.6657 N   0  0  0  0  0  0
   -0.3483   -1.5855    7.0095 C   0  0  0  0  0  0
    0.2872   -1.1552    5.7742 C   0  0  0  0  0  0
    0.6454    0.1820    5.6035 C   0  0  0  0  0  0
    1.2550    0.5951    4.4188 C   0  0  0  0  0  0
    1.5062   -0.3291    3.4047 C   0  0  0  0  0  0
    1.1479   -1.6664    3.5754 C   0  0  0  0  0  0
    0.5384   -2.0794    4.7601 C   0  0  0  0  0  0
    2.1604    0.1160    2.1288 C   0  0  0  0  0  0
    3.2187   -0.8002    1.7081 N   0  0  0  0  0  0
    4.4328   -0.5968    2.5079 C   0  0  0  0  0  0
    5.5443   -1.5548    2.0658 C   0  0  0  0  0  0
    5.8387   -1.3892    0.6372 N   0  3  0  0  0  0
    4.6249   -1.5935   -0.1628 C   0  0  0  0  0  0
    3.5125   -0.6365    0.2792 C   0  0  0  0  0  0
    6.8981   -2.3037    0.2160 C   0  0  0  0  0  0
   -0.2094   -2.7337    7.4258 O   0  0  0  0  0  0
   -3.8632   -0.9449   12.6220 C   0  0  0  0  0  0
   -2.4066   -5.4922   12.0477 N   0  0  0  0  0  0
   -2.3347   -6.7641   11.6033 C   0  0  0  0  0  0
   -2.1849   -8.1410    9.9553 H   0  0  0  0  0  0
   -0.9921   -8.1070    8.1036 H   0  0  0  0  0  0
   -1.7894   -6.9877    4.2294 H   0  0  0  0  0  0
   -3.0278   -4.9455    4.9667 H   0  0  0  0  0  0
   -3.2322   -4.5016    7.4003 H   0  0  0  0  0  0
   -2.5279   -2.9784   12.5842 H   0  0  0  0  0  0
   -3.6349    1.2043   11.0128 H   0  0  0  0  0  0
   -2.4315    1.3721    8.8710 H   0  0  0  0  0  0
   -1.2476   -2.7542    9.2020 H   0  0  0  0  0  0
   -1.0604    0.3647    7.1124 H   0  0  0  0  0  0
    0.4548    0.9109    6.3872 H   0  0  0  0  0  0
    1.5303    1.6391    4.2946 H   0  0  0  0  0  0
    1.3397   -2.3930    2.7904 H   0  0  0  0  0  0
    0.2637   -3.1239    4.8822 H   0  0  0  0  0  0
    1.4079    0.1628    1.3278 H   0  0  0  0  0  0
    2.6051    1.1118    2.2727 H   0  0  0  0  0  0
    4.7859    0.4373    2.3819 H   0  0  0  0  0  0
    4.2081   -0.7808    3.5689 H   0  0  0  0  0  0
    6.4579   -1.3473    2.6421 H   0  0  0  0  0  0
    5.2262   -2.5926    2.2440 H   0  0  0  0  0  0
    4.8497   -1.4091   -1.2237 H   0  0  0  0  0  0
    4.2726   -2.6280   -0.0370 H   0  0  0  0  0  0
    2.6074   -0.8507   -0.3081 H   0  0  0  0  0  0
    3.8378    0.3967    0.0877 H   0  0  0  0  0  0
    7.1007   -2.1613   -0.8558 H   0  0  0  0  0  0
    6.5792   -3.3412    0.3943 H   0  0  0  0  0  0
    7.8118   -2.0968    0.7925 H   0  0  0  0  0  0
   -4.3183    0.0325   12.8404 H   0  0  0  0  0  0
   -3.1635   -1.2118   13.4277 H   0  0  0  0  0  0
   -4.6514   -1.7091   12.5527 H   0  0  0  0  0  0
   -2.3561   -7.5262   12.3750 H   0  0  0  0  0  0
    6.1974   -0.3626    0.4714 H   0  0  0  0  0  0
   -0.7903   -8.5392    5.8013 H   0  0  0  0  0  0
  1 37  2  0  0  0
  1  2  1  0  0  0
  1 38  1  0  0  0
  2  3  1  0  0  0
  2  9  2  0  0  0
  3  8  2  0  0  0
  3  4  1  0  0  0
  4  5  2  0  0  0
  4 39  1  0  0  0
  5  6  1  0  0  0
  5 70  1  0  0  0
  6  7  2  0  0  0
  6 40  1  0  0  0
  7  8  1  0  0  0
  7 41  1  0  0  0
  8 42  1  0  0  0
  9 10  1  0  0  0
 10 11  1  0  0  0
 10 36  2  0  0  0
 11 12  1  0  0  0
 11 43  1  0  0  0
 12 17  2  0  0  0
 12 13  1  0  0  0
 13 14  2  0  0  0
 13 35  1  0  0  0
 14 15  1  0  0  0
 14 44  1  0  0  0
 15 16  2  0  0  0
 15 45  1  0  0  0
 16 17  1  0  0  0
 16 18  1  0  0  0
 17 46  1  0  0  0
 18 19  1  0  0  0
 18 47  1  0  0  0
 19 20  1  0  0  0
 19 34  2  0  0  0
 20 25  2  0  0  0
 20 21  1  0  0  0
 21 22  2  0  0  0
 21 48  1  0  0  0
 22 23  1  0  0  0
 22 49  1  0  0  0
 23 24  2  0  0  0
 23 26  1  0  0  0
 24 25  1  0  0  0
 24 50  1  0  0  0
 25 51  1  0  0  0
 26 27  1  0  0  0
 26 52  1  0  0  0
 26 53  1  0  0  0
 27 32  1  0  0  0
 27 28  1  0  0  0
 28 29  1  0  0  0
 28 54  1  0  0  0
 28 55  1  0  0  0
 29 30  1  0  0  0
 29 56  1  0  0  0
 29 57  1  0  0  0
 30 31  1  0  0  0
 30 33  1  0  0  0
 30 69  1  0  0  0
 31 32  1  0  0  0
 31 58  1  0  0  0
 31 59  1  0  0  0
 32 60  1  0  0  0
 32 61  1  0  0  0
 33 62  1  0  0  0
 33 63  1  0  0  0
 33 64  1  0  0  0
 35 65  1  0  0  0
 35 66  1  0  0  0
 35 67  1  0  0  0
 36 37  1  0  0  0
 37 68  1  0  0  0
M  CHG  2   5   1  30   1
M  END
> <s_m_source_file>
/Users/andrea/Development/mcce-charges/epik_inhibitors/output/Imatinib/Imatinib-input.mol2

> <i_m_source_file_index>
1

> <r_epik_Ionization_Penalty>
  4.8725

> <r_epik_Ionization_Penalty_Charging>
  4.8493

> <r_epik_Ionization_Penalty_Neutral>
  0.0231

> <r_epik_State_Penalty>
  5.8413

> <i_epik_Tot_Q>
2

$$$$
4-[(4-methylpiperazin-1-yl)methyl]-~{N}-[4-methyl-3-[[4-(3-pyridyl)pyrimidin-2-yl]amino]phenyl]benzamide
                    3D
 Structure written by MMmdl.
 69 73  0  0  1  0            999 V2000
   -2.2404   -7.1062   10.2698 C   0  0  0  0  0  0
   -2.2225   -6.0497    9.3822 C   0  0  0  0  0  0
   -2.1261   -6.2718    7.9594 C   0  0  0  0  0  0
   -1.4605   -7.3756    7.4511 C   0  0  0  0  0  0
   -1.3338   -7.6417    6.1317 N   0  3  0  0  0  0
   -1.9031   -6.7563    5.2835 C   0  0  0  0  0  0
   -2.5897   -5.6235    5.6902 C   0  0  0  0  0  0
   -2.6987   -5.3839    7.0555 C   0  0  0  0  0  0
   -2.2911   -4.7552    9.7563 N   0  0  0  0  0  0
   -2.3803   -4.5515   11.0844 C   0  0  0  0  0  0
   -2.4535   -3.2106   11.5116 N   0  0  0  0  0  0
   -2.4532   -1.9825   10.8141 C   0  0  0  0  0  0
   -3.1249   -0.8719   11.3251 C   0  0  0  0  0  0
   -3.1148    0.3333   10.6229 C   0  0  0  0  0  0
   -2.4330    0.4279    9.4097 C   0  0  0  0  0  0
   -1.7613   -0.6828    8.8987 C   0  0  0  0  0  0
   -1.7714   -1.8879    9.6010 C   0  0  0  0  0  0
   -1.0683   -0.5860    7.6657 N   0  0  0  0  0  0
   -0.3483   -1.5855    7.0095 C   0  0  0  0  0  0
    0.2872   -1.1552    5.7742 C   0  0  0  0  0  0
    0.6454    0.1820    5.6035 C   0  0  0  0  0  0
    1.2550    0.5951    4.4188 C   0  0  0  0  0  0
    1.5062   -0.3291    3.4047 C   0  0  0  0  0  0
    1.1479   -1.6664    3.5754 C   0  0  0  0  0  0
    0.5384   -2.0794    4.7601 C   0  0  0  0  0  0
    2.1604    0.1160    2.1288 C   0  0  0  0  0  0
    3.2187   -0.8002    1.7081 N   0  0  0  0  0  0
    4.4328   -0.5968    2.5079 C   0  0  0  0  0  0
    5.5443   -1.5548    2.0658 C   0  0  0  0  0  0
    5.8387   -1.3892    0.6372 N   0  0  0  0  0  0
    4.6249   -1.5935   -0.1628 C   0  0  0  0  0  0
    3.5125   -0.6365    0.2792 C   0  0  0  0  0  0
    6.8981   -2.3037    0.2160 C   0  0  0  0  0  0
   -0.2094   -2.7337    7.4258 O   0  0  0  0  0  0
   -3.8632   -0.9449   12.6220 C   0  0  0  0  0  0
   -2.4066   -5.4922   12.0477 N   0  0  0  0  0  0
   -2.3347   -6.7641   11.6033 C   0  0  0  0  0  0
   -2.1849   -8.1410    9.9553 H   0  0  0  0  0  0
   -0.9921   -8.1070    8.1036 H   0  0  0  0  0  0
   -1.7894   -6.9877    4.2294 H   0  0  0  0  0  0
   -3.0278   -4.9455    4.9667 H   0  0  0  0  0  0
   -3.2322   -4.5016    7.4003 H   0  0  0  0  0  0
   -2.5279   -2.9784   12.5842 H   0  0  0  0  0  0
   -3.6349    1.2043   11.0128 H   0  0  0  0  0  0
   -2.4315    1.3721    8.8710 H   0  0  0  0  0  0
   -1.2476   -2.7542    9.2020 H   0  0  0  0  0  0
   -1.0604    0.3647    7.1124 H   0  0  0  0  0  0
    0.4548    0.9109    6.3872 H   0  0  0  0  0  0
    1.5303    1.6391    4.2946 H   0  0  0  0  0  0
    1.3397   -2.3930    2.7904 H   0  0  0  0  0  0
    0.2637   -3.1239    4.8822 H   0  0  0  0  0  0
    1.4079    0.1628    1.3278 H   0  0  0  0  0  0
    2.6051    1.1118    2.2727 H   0  0  0  0  0  0
    4.7859    0.4373    2.3819 H   0  0  0  0  0  0
    4.2081   -0.7808    3.5689 H   0  0  0  0  0  0
    6.4579   -1.3473    2.6421 H   0  0  0  0  0  0
    5.2262   -2.5926    2.2440 H   0  0  0  0  0  0
    4.8497   -1.4091   -1.2237 H   0  0  0  0  0  0
    4.2726   -2.6280   -0.0370 H   0  0  0  0  0  0
    2.6074   -0.8507   -0.3081 H   0  0  0  0  0  0
    3.8378    0.3967    0.0877 H   0  0  0  0  0  0
    7.1007   -2.1613   -0.8558 H   0  0  0  0  0  0
    6.5792   -3.3412    0.3943 H   0  0  0  0  0  0
    7.8118   -2.0968    0.7925 H   0  0  0  0  0  0
   -4.3183    0.0325   12.8404 H   0  0  0  0  0  0
   -3.1635   -1.2118   13.4277 H   0  0  0  0  0  0
   -4.6514   -1.7091   12.5527 H   0  0  0  0  0  0
   -2.3561   -7.5262   12.3750 H   0  0  0  0  0  0
   -0.7903   -8.5392    5.8013 H   0  0  0  0  0  0
  1 37  2  0  0  0
  1  2  1  0  0  0
  1 38  1  0  0  0
  2  3  1  0  0  0
  2  9  2  0  0  0
  3  8  2  0  0  0
  3  4  1  0  0  0
  4  5  2  0  0  0
  4 39  1  0  0  0
  5  6  1  0  0  0
  5 69  1  0  0  0
  6  7  2  0  0  0
  6 40  1  0  0  0
  7  8  1  0  0  0
  7 41  1  0  0  0
  8 42  1  0  0  0
  9 10  1  0  0  0
 10 11  1  0  0  0
 10 36  2  0  0  0
 11 12  1  0  0  0
 11 43  1  0  0  0
 12 17  2  0  0  0
 12 13  1  0  0  0
 13 14  2  0  0  0
 13 35  1  0  0  0
 14 15  1  0  0  0
 14 44  1  0  0  0
 15 16  2  0  0  0
 15 45  1  0  0  0
 16 17  1  0  0  0
 16 18  1  0  0  0
 17 46  1  0  0  0
 18 19  1  0  0  0
 18 47  1  0  0  0
 19 20  1  0  0  0
 19 34  2  0  0  0
 20 25  2  0  0  0
 20 21  1  0  0  0
 21 22  2  0  0  0
 21 48  1  0  0  0
 22 23  1  0  0  0
 22 49  1  0  0  0
 23 24  2  0  0  0
 23 26  1  0  0  0
 24 25  1  0  0  0
 24 50  1  0  0  0
 25 51  1  0  0  0
 26 27  1  0  0  0
 26 52  1  0  0  0
 26 53  1  0  0  0
 27 32  1  0  0  0
 27 28  1  0  0  0
 28 29  1  0  0  0
 28 54  1  0  0  0
 28 55  1  0  0  0
 29 30  1  0  0  0
 29 56  1  0  0  0
 29 57  1  0  0  0
 30 31  1  0  0  0
 30 33  1  0  0  0
 31 32  1  0  0  0
 31 58  1  0  0  0
 31 59  1  0  0  0
 32 60  1  0  0  0
 32 61  1  0  0  0
 33 62  1  0  0  0
 33 63  1  0  0  0
 33 64  1  0  0  0
 35 65  1  0  0  0
 35 66  1  0  0  0
 35 67  1  0  0  0
 36 37  1  0  0  0
 37 68  1  0  0  0
M  CHG  1   5   1
M  END
> <s_m_source_file>
/Users/andrea/Development/mcce-charges/epik_inhibitors/output/Imatinib/Imatinib-input.mol2

> <i_m_source_file_index>
1

> <r_epik_Ionization_Penalty>
  7.8608

> <r_epik_Ionization_Penalty_Charging>
  4.7931

> <r_epik_Ionization_Penalty_Neutral>
  3.0677

> <r_epik_State_Penalty>
  7.2158

> <i_epik_Tot_Q>
1

$$$$
4-[(4-methylpiperazin-1-yl)methyl]-~{N}-[4-methyl-3-[[4-(3-pyridyl)pyrimidin-2-yl]amino]phenyl]benzamide
                    3D
 Structure written by MMmdl.
 68 72  0  0  1  0            999 V2000
   -2.2404   -7.1062   10.2698 C   0  0  0  0  0  0
   -2.2225   -6.0497    9.3822 C   0  0  0  0  0  0
   -2.1261   -6.2718    7.9594 C   0  0  0  0  0  0
   -1.4605   -7.3756    7.4511 C   0  0  0  0  0  0
   -1.3338   -7.6417    6.1317 N   0  0  0  0  0  0
   -1.9031   -6.7563    5.2835 C   0  0  0  0  0  0
   -2.5897   -5.6235    5.6902 C   0  0  0  0  0  0
   -2.6987   -5.3839    7.0555 C   0  0  0  0  0  0
   -2.2911   -4.7552    9.7563 N   0  0  0  0  0  0
   -2.3803   -4.5515   11.0844 C   0  0  0  0  0  0
   -2.4535   -3.2106   11.5116 N   0  0  0  0  0  0
   -2.4532   -1.9825   10.8141 C   0  0  0  0  0  0
   -3.1249   -0.8719   11.3251 C   0  0  0  0  0  0
   -3.1148    0.3333   10.6229 C   0  0  0  0  0  0
   -2.4330    0.4279    9.4097 C   0  0  0  0  0  0
   -1.7613   -0.6828    8.8987 C   0  0  0  0  0  0
   -1.7714   -1.8879    9.6010 C   0  0  0  0  0  0
   -1.0683   -0.5860    7.6657 N   0  0  0  0  0  0
   -0.3483   -1.5855    7.0095 C   0  0  0  0  0  0
    0.2872   -1.1552    5.7742 C   0  0  0  0  0  0
    0.6454    0.1820    5.6035 C   0  0  0  0  0  0
    1.2550    0.5951    4.4188 C   0  0  0  0  0  0
    1.5062   -0.3291    3.4047 C   0  0  0  0  0  0
    1.1479   -1.6664    3.5754 C   0  0  0  0  0  0
    0.5384   -2.0794    4.7601 C   0  0  0  0  0  0
    2.1604    0.1160    2.1288 C   0  0  0  0  0  0
    3.2187   -0.8002    1.7081 N   0  3  0  0  0  0
    4.4328   -0.5968    2.5079 C   0  0  0  0  0  0
    5.5443   -1.5548    2.0658 C   0  0  0  0  0  0
    5.8387   -1.3892    0.6372 N   0  0  0  0  0  0
    4.6249   -1.5935   -0.1628 C   0  0  0  0  0  0
    3.5125   -0.6365    0.2792 C   0  0  0  0  0  0
    6.8981   -2.3037    0.2160 C   0  0  0  0  0  0
   -0.2094   -2.7337    7.4258 O   0  5  0  0  0  0
   -3.8632   -0.9449   12.6220 C   0  0  0  0  0  0
   -2.4066   -5.4922   12.0477 N   0  0  0  0  0  0
   -2.3347   -6.7641   11.6033 C   0  0  0  0  0  0
   -2.1904   -8.0686   10.0028 H   0  0  0  0  0  0
   -0.9921   -8.1070    8.1036 H   0  0  0  0  0  0
   -1.7894   -6.9877    4.2294 H   0  0  0  0  0  0
   -3.0278   -4.9455    4.9667 H   0  0  0  0  0  0
   -3.2322   -4.5016    7.4003 H   0  0  0  0  0  0
   -2.5279   -2.9784   12.5842 H   0  0  0  0  0  0
   -3.6349    1.2043   11.0128 H   0  0  0  0  0  0
   -2.4315    1.3721    8.8710 H   0  0  0  0  0  0
   -1.2476   -2.7542    9.2020 H   0  0  0  0  0  0
    0.4548    0.9109    6.3872 H   0  0  0  0  0  0
    1.5303    1.6391    4.2946 H   0  0  0  0  0  0
    1.3397   -2.3930    2.7904 H   0  0  0  0  0  0
    0.2637   -3.1239    4.8822 H   0  0  0  0  0  0
    1.4079    0.1628    1.3278 H   0  0  0  0  0  0
    2.6051    1.1118    2.2727 H   0  0  0  0  0  0
    4.7859    0.4373    2.3819 H   0  0  0  0  0  0
    4.2081   -0.7808    3.5689 H   0  0  0  0  0  0
    6.4579   -1.3473    2.6421 H   0  0  0  0  0  0
    5.2262   -2.5926    2.2440 H   0  0  0  0  0  0
    4.8497   -1.4091   -1.2237 H   0  0  0  0  0  0
    4.2726   -2.6280   -0.0370 H   0  0  0  0  0  0
    2.6074   -0.8507   -0.3081 H   0  0  0  0  0  0
    3.8378    0.3967    0.0877 H   0  0  0  0  0  0
    7.1007   -2.1613   -0.8558 H   0  0  0  0  0  0
    6.5792   -3.3412    0.3943 H   0  0  0  0  0  0
    7.8118   -2.0968    0.7925 H   0  0  0  0  0  0
   -4.3183    0.0325   12.8404 H   0  0  0  0  0  0
   -3.1635   -1.2118   13.4277 H   0  0  0  0  0  0
   -4.6514   -1.7091   12.5527 H   0  0  0  0  0  0
   -2.3533   -7.4786   12.3027 H   0  0  0  0  0  0
    2.8592   -1.8263    1.8747 H   0  0  0  0  0  0
  1 37  2  0  0  0
  1  2  1  0  0  0
  1 38  1  0  0  0
  2  3  1  0  0  0
  2  9  2  0  0  0
  3  8  2  0  0  0
  3  4  1  0  0  0
  4  5  2  0  0  0
  4 39  1  0  0  0
  5  6  1  0  0  0
  6  7  2  0  0  0
  6 40  1  0  0  0
  7  8  1  0  0  0
  7 41  1  0  0  0
  8 42  1  0  0  0
  9 10  1  0  0  0
 10 11  1  0  0  0
 10 36  2  0  0  0
 11 12  1  0  0  0
 11 43  1  0  0  0
 12 17  2  0  0  0
 12 13  1  0  0  0
 13 14  2  0  0  0
 13 35  1  0  0  0
 14 15  1  0  0  0
 14 44  1  0  0  0
 15 16  2  0  0  0
 15 45  1  0  0  0
 16 17  1  0  0  0
 16 18  1  0  0  0
 17 46  1  0  0  0
 18 19  2  0  0  0
 19 20  1  0  0  0
 19 34  1  0  0  0
 20 25  2  0  0  0
 20 21  1  0  0  0
 21 22  2  0  0  0
 21 47  1  0  0  0
 22 23  1  0  0  0
 22 48  1  0  0  0
 23 24  2  0  0  0
 23 26  1  0  0  0
 24 25  1  0  0  0
 24 49  1  0  0  0
 25 50  1  0  0  0
 26 27  1  0  0  0
 26 51  1  0  0  0
 26 52  1  0  0  0
 27 32  1  0  0  0
 27 28  1  0  0  0
 27 68  1  0  0  0
 28 29  1  0  0  0
 28 53  1  0  0  0
 28 54  1  0  0  0
 29 30  1  0  0  0
 29 55  1  0  0  0
 29 56  1  0  0  0
 30 31  1  0  0  0
 30 33  1  0  0  0
 31 32  1  0  0  0
 31 57  1  0  0  0
 31 58  1  0  0  0
 32 59  1  0  0  0
 32 60  1  0  0  0
 33 61  1  0  0  0
 33 62  1  0  0  0
 33 63  1  0  0  0
 35 64  1  0  0  0
 35 65  1  0  0  0
 35 66  1  0  0  0
 36 37  1  0  0  0
 37 67  1  0  0  0
M  CHG  2  27   1  34  -1
M  END
> <s_m_source_file>
/Users/andrea/Development/mcce-charges/epik_inhibitors/output/Imatinib/Imatinib-input.mol2

> <i_m_source_file_index>
1

> <r_epik_Ionization_Penalty>
  7.4668

> <r_epik_Ionization_Penalty_Charging>
  7.4660

> <r_epik_Ionization_Penalty_Neutral>
  0.0008

> <r_epik_State_Penalty>
  8.1234

> <i_epik_Tot_Q>
0

$$$$
4-[(4-methylpiperazin-1-yl)methyl]-~{N}-[4-methyl-3-[[4-(3-pyridyl)pyrimidin-2-yl]amino]phenyl]benzamide
                    3D
 Structure written by MMmdl.
 68 72  0  0  1  0            999 V2000
   -2.2404   -7.1062   10.2698 C   0  0  0  0  0  0
   -2.2225   -6.0497    9.3822 C   0  0  0  0  0  0
   -2.1261   -6.2718    7.9594 C   0  0  0  0  0  0
   -1.4605   -7.3756    7.4511 C   0  0  0  0  0  0
   -1.3338   -7.6417    6.1317 N   0  0  0  0  0  0
   -1.9031   -6.7563    5.2835 C   0  0  0  0  0  0
   -2.5897   -5.6235    5.6902 C   0  0  0  0  0  0
   -2.6987   -5.3839    7.0555 C   0  0  0  0  0  0
   -2.2911   -4.7552    9.7563 N   0  0  0  0  0  0
   -2.3803   -4.5515   11.0844 C   0  0  0  0  0  0
   -2.4535   -3.2106   11.5116 N   0  0  0  0  0  0
   -2.4532   -1.9825   10.8141 C   0  0  0  0  0  0
   -3.1249   -0.8719   11.3251 C   0  0  0  0  0  0
   -3.1148    0.3333   10.6229 C   0  0  0  0  0  0
   -2.4330    0.4279    9.4097 C   0  0  0  0  0  0
   -1.7613   -0.6828    8.8987 C   0  0  0  0  0  0
   -1.7714   -1.8879    9.6010 C   0  0  0  0  0  0
   -1.0683   -0.5860    7.6657 N   0  0  0  0  0  0
   -0.3483   -1.5855    7.0095 C   0  0  0  0  0  0
    0.2872   -1.1552    5.7742 C   0  0  0  0  0  0
    0.6454    0.1820    5.6035 C   0  0  0  0  0  0
    1.2550    0.5951    4.4188 C   0  0  0  0  0  0
    1.5062   -0.3291    3.4047 C   0  0  0  0  0  0
    1.1479   -1.6664    3.5754 C   0  0  0  0  0  0
    0.5384   -2.0794    4.7601 C   0  0  0  0  0  0
    2.1604    0.1160    2.1288 C   0  0  0  0  0  0
    3.2187   -0.8002    1.7081 N   0  0  0  0  0  0
    4.4328   -0.5968    2.5079 C   0  0  0  0  0  0
    5.5443   -1.5548    2.0658 C   0  0  0  0  0  0
    5.8387   -1.3892    0.6372 N   0  3  0  0  0  0
    4.6249   -1.5935   -0.1628 C   0  0  0  0  0  0
    3.5125   -0.6365    0.2792 C   0  0  0  0  0  0
    6.8981   -2.3037    0.2160 C   0  0  0  0  0  0
   -0.2094   -2.7337    7.4258 O   0  5  0  0  0  0
   -3.8632   -0.9449   12.6220 C   0  0  0  0  0  0
   -2.4066   -5.4922   12.0477 N   0  0  0  0  0  0
   -2.3347   -6.7641   11.6033 C   0  0  0  0  0  0
   -2.1904   -8.0686   10.0028 H   0  0  0  0  0  0
   -0.9921   -8.1070    8.1036 H   0  0  0  0  0  0
   -1.7894   -6.9877    4.2294 H   0  0  0  0  0  0
   -3.0278   -4.9455    4.9667 H   0  0  0  0  0  0
   -3.2322   -4.5016    7.4003 H   0  0  0  0  0  0
   -2.5279   -2.9784   12.5842 H   0  0  0  0  0  0
   -3.6349    1.2043   11.0128 H   0  0  0  0  0  0
   -2.4315    1.3721    8.8710 H   0  0  0  0  0  0
   -1.2476   -2.7542    9.2020 H   0  0  0  0  0  0
    0.4548    0.9109    6.3872 H   0  0  0  0  0  0
    1.5303    1.6391    4.2946 H   0  0  0  0  0  0
    1.3397   -2.3930    2.7904 H   0  0  0  0  0  0
    0.2637   -3.1239    4.8822 H   0  0  0  0  0  0
    1.4079    0.1628    1.3278 H   0  0  0  0  0  0
    2.6051    1.1118    2.2727 H   0  0  0  0  0  0
    4.7859    0.4373    2.3819 H   0  0  0  0  0  0
    4.2081   -0.7808    3.5689 H   0  0  0  0  0  0
    6.4579   -1.3473    2.6421 H   0  0  0  0  0  0
    5.2262   -2.5926    2.2440 H   0  0  0  0  0  0
    4.8497   -1.4091   -1.2237 H   0  0  0  0  0  0
    4.2726   -2.6280   -0.0370 H   0  0  0  0  0  0
    2.6074   -0.8507   -0.3081 H   0  0  0  0  0  0
    3.8378    0.3967    0.0877 H   0  0  0  0  0  0
    7.1007   -2.1613   -0.8558 H   0  0  0  0  0  0
    6.5792   -3.3412    0.3943 H   0  0  0  0  0  0
    7.8118   -2.0968    0.7925 H   0  0  0  0  0  0
   -4.3183    0.0325   12.8404 H   0  0  0  0  0  0
   -3.1635   -1.2118   13.4277 H   0  0  0  0  0  0
   -4.6514   -1.7091   12.5527 H   0  0  0  0  0  0
   -2.3533   -7.4786   12.3027 H   0  0  0  0  0  0
    6.1974   -0.3626    0.4714 H   0  0  0  0  0  0
  1 37  2  0  0  0
  1  2  1  0  0  0
  1 38  1  0  0  0
  2  3  1  0  0  0
  2  9  2  0  0  0
  3  8  2  0  0  0
  3  4  1  0  0  0
  4  5  2  0  0  0
  4 39  1  0  0  0
  5  6  1  0  0  0
  6  7  2  0  0  0
  6 40  1  0  0  0
  7  8  1  0  0  0
  7 41  1  0  0  0
  8 42  1  0  0  0
  9 10  1  0  0  0
 10 11  1  0  0  0
 10 36  2  0  0  0
 11 12  1  0  0  0
 11 43  1  0  0  0
 12 17  2  0  0  0
 12 13  1  0  0  0
 13 14  2  0  0  0
 13 35  1  0  0  0
 14 15  1  0  0  0
 14 44  1  0  0  0
 15 16  2  0  0  0
 15 45  1  0  0  0
 16 17  1  0  0  0
 16 18  1  0  0  0
 17 46  1  0  0  0
 18 19  2  0  0  0
 19 20  1  0  0  0
 19 34  1  0  0  0
 20 25  2  0  0  0
 20 21  1  0  0  0
 21 22  2  0  0  0
 21 47  1  0  0  0
 22 23  1  0  0  0
 22 48  1  0  0  0
 23 24  2  0  0  0
 23 26  1  0  0  0
 24 25  1  0  0  0
 24 49  1  0  0  0
 25 50  1  0  0  0
 26 27  1  0  0  0
 26 51  1  0  0  0
 26 52  1  0  0  0
 27 32  1  0  0  0
 27 28  1  0  0  0
 28 29  1  0  0  0
 28 53  1  0  0  0
 28 54  1  0  0  0
 29 30  1  0  0  0
 29 55  1  0  0  0
 29 56  1  0  0  0
 30 31  1  0  0  0
 30 33  1  0  0  0
 30 68  1  0  0  0
 31 32  1  0  0  0
 31 57  1  0  0  0
 31 58  1  0  0  0
 32 59  1  0  0  0
 32 60  1  0  0  0
 33 61  1  0  0  0
 33 62  1  0  0  0
 33 63  1  0  0  0
 35 64  1  0  0  0
 35 65  1  0  0  0
 35 66  1  0  0  0
 36 37  1  0  0  0
 37 67  1  0  0  0
M  CHG  2  30   1  34  -1
M  END
> <s_m_source_file>
/Users/andrea/Development/mcce-charges/epik_inhibitors/output/Imatinib/Imatinib-input.mol2

> <i_m_source_file_index>
1

> <r_epik_Ionization_Penalty>
  8.4320

> <r_epik_Ionization_Penalty_Charging>
  8.4087

> <r_epik_Ionization_Penalty_Neutral>
  0.0234

> <r_epik_State_Penalty>
  9.7231

> <i_epik_Tot_Q>
0

$$$$
4-[(4-methylpiperazin-1-yl)methyl]-~{N}-[4-methyl-3-[[4-(3-pyridyl)pyrimidin-2-yl]amino]phenyl]benzamide
                    3D
 Structure written by MMmdl.
 69 73  0  0  1  0            999 V2000
   -2.2404   -7.1062   10.2698 C   0  0  0  0  0  0
   -2.2221   -6.0497    9.3822 C   0  0  0  0  0  0
   -2.1253   -6.2718    7.9595 C   0  0  0  0  0  0
   -1.4596   -7.3756    7.4513 C   0  0  0  0  0  0
   -1.3325   -7.6417    6.1320 N   0  0  0  0  0  0
   -1.9014   -6.7562    5.2836 C   0  0  0  0  0  0
   -2.5880   -5.6234    5.6901 C   0  0  0  0  0  0
   -2.6975   -5.3838    7.0554 C   0  0  0  0  0  0
   -2.2911   -4.7552    9.7563 N   0  3  0  0  0  0
   -2.3803   -4.5515   11.0844 C   0  0  0  0  0  0
   -2.4535   -3.2106   11.5116 N   0  0  0  0  0  0
   -2.4532   -1.9825   10.8141 C   0  0  0  0  0  0
   -3.1249   -0.8719   11.3251 C   0  0  0  0  0  0
   -3.1148    0.3333   10.6229 C   0  0  0  0  0  0
   -2.4330    0.4279    9.4097 C   0  0  0  0  0  0
   -1.7613   -0.6828    8.8987 C   0  0  0  0  0  0
   -1.7714   -1.8879    9.6010 C   0  0  0  0  0  0
   -1.0683   -0.5860    7.6657 N   0  0  0  0  0  0
   -0.3483   -1.5855    7.0095 C   0  0  0  0  0  0
    0.2872   -1.1552    5.7742 C   0  0  0  0  0  0
    0.6454    0.1820    5.6035 C   0  0  0  0  0  0
    1.2550    0.5951    4.4188 C   0  0  0  0  0  0
    1.5062   -0.3291    3.4047 C   0  0  0  0  0  0
    1.1479   -1.6664    3.5754 C   0  0  0  0  0  0
    0.5384   -2.0794    4.7601 C   0  0  0  0  0  0
    2.1604    0.1160    2.1288 C   0  0  0  0  0  0
    3.2187   -0.8002    1.7081 N   0  3  0  0  0  0
    4.4328   -0.5968    2.5079 C   0  0  0  0  0  0
    5.5443   -1.5548    2.0658 C   0  0  0  0  0  0
    5.8387   -1.3892    0.6372 N   0  0  0  0  0  0
    4.6249   -1.5935   -0.1628 C   0  0  0  0  0  0
    3.5125   -0.6365    0.2792 C   0  0  0  0  0  0
    6.8981   -2.3037    0.2160 C   0  0  0  0  0  0
   -0.2094   -2.7337    7.4258 O   0  0  0  0  0  0
   -3.8632   -0.9449   12.6220 C   0  0  0  0  0  0
   -2.4071   -5.4922   12.0477 N   0  5  0  0  0  0
   -2.3351   -6.7641   11.6033 C   0  0  0  0  0  0
   -2.1903   -8.0686   10.0028 H   0  0  0  0  0  0
   -0.9915   -8.1071    8.1040 H   0  0  0  0  0  0
   -1.7874   -6.9876    4.2295 H   0  0  0  0  0  0
   -3.0258   -4.9453    4.9665 H   0  0  0  0  0  0
   -3.2310   -4.5014    7.4000 H   0  0  0  0  0  0
   -3.6349    1.2043   11.0128 H   0  0  0  0  0  0
   -2.4315    1.3721    8.8710 H   0  0  0  0  0  0
   -1.2476   -2.7542    9.2020 H   0  0  0  0  0  0
   -1.0604    0.3647    7.1124 H   0  0  0  0  0  0
    0.4548    0.9109    6.3872 H   0  0  0  0  0  0
    1.5303    1.6391    4.2946 H   0  0  0  0  0  0
    1.3397   -2.3930    2.7904 H   0  0  0  0  0  0
    0.2637   -3.1239    4.8822 H   0  0  0  0  0  0
    1.4079    0.1628    1.3278 H   0  0  0  0  0  0
    2.6051    1.1118    2.2727 H   0  0  0  0  0  0
    4.7859    0.4373    2.3819 H   0  0  0  0  0  0
    4.2081   -0.7808    3.5689 H   0  0  0  0  0  0
    6.4579   -1.3473    2.6421 H   0  0  0  0  0  0
    5.2262   -2.5926    2.2440 H   0  0  0  0  0  0
    4.8497   -1.4091   -1.2237 H   0  0  0  0  0  0
    4.2726   -2.6280   -0.0370 H   0  0  0  0  0  0
    2.6074   -0.8507   -0.3081 H   0  0  0  0  0  0
    3.8378    0.3967    0.0877 H   0  0  0  0  0  0
    7.1007   -2.1613   -0.8558 H   0  0  0  0  0  0
    6.5792   -3.3412    0.3943 H   0  0  0  0  0  0
    7.8118   -2.0968    0.7925 H   0  0  0  0  0  0
   -4.3183    0.0325   12.8404 H   0  0  0  0  0  0
   -3.1635   -1.2118   13.4277 H   0  0  0  0  0  0
   -4.6514   -1.7091   12.5527 H   0  0  0  0  0  0
   -2.3537   -7.4786   12.3027 H   0  0  0  0  0  0
    2.8592   -1.8263    1.8747 H   0  0  0  0  0  0
   -2.2790   -3.8973    9.0679 H   0  0  0  0  0  0
  1  2  1  0  0  0
  1 38  1  0  0  0
  1 37  2  0  0  0
  2  9  2  0  0  0
  2  3  1  0  0  0
  3  8  2  0  0  0
  3  4  1  0  0  0
  4  5  2  0  0  0
  4 39  1  0  0  0
  5  6  1  0  0  0
  6  7  2  0  0  0
  6 40  1  0  0  0
  7  8  1  0  0  0
  7 41  1  0  0  0
  8 42  1  0  0  0
  9 10  1  0  0  0
  9 69  1  0  0  0
 10 11  2  0  0  0
 10 36  1  0  0  0
 11 12  1  0  0  0
 12 17  2  0  0  0
 12 13  1  0  0  0
 13 14  2  0  0  0
 13 35  1  0  0  0
 14 15  1  0  0  0
 14 43  1  0  0  0
 15 16  2  0  0  0
 15 44  1  0  0  0
 16 17  1  0  0  0
 16 18  1  0  0  0
 17 45  1  0  0  0
 18 19  1  0  0  0
 18 46  1  0  0  0
 19 20  1  0  0  0
 19 34  2  0  0  0
 20 25  2  0  0  0
 20 21  1  0  0  0
 21 22  2  0  0  0
 21 47  1  0  0  0
 22 23  1  0  0  0
 22 48  1  0  0  0
 23 24  2  0  0  0
 23 26  1  0  0  0
 24 25  1  0  0  0
 24 49  1  0  0  0
 25 50  1  0  0  0
 26 27  1  0  0  0
 26 51  1  0  0  0
 26 52  1  0  0  0
 27 32  1  0  0  0
 27 28  1  0  0  0
 27 68  1  0  0  0
 28 29  1  0  0  0
 28 53  1  0  0  0
 28 54  1  0  0  0
 29 30  1  0  0  0
 29 55  1  0  0  0
 29 56  1  0  0  0
 30 31  1  0  0  0
 30 33  1  0  0  0
 31 32  1  0  0  0
 31 57  1  0  0  0
 31 58  1  0  0  0
 32 59  1  0  0  0
 32 60  1  0  0  0
 33 61  1  0  0  0
 33 62  1  0  0  0
 33 63  1  0  0  0
 35 64  1  0  0  0
 35 65  1  0  0  0
 35 66  1  0  0  0
 36 37  1  0  0  0
 37 67  1  0  0  0
M  CHG  3   9   1  27   1  36  -1
M  END
> <s_m_source_file>
/Users/andrea/Development/mcce-charges/epik_inhibitors/output/Imatinib/Imatinib-input.mol2

> <i_m_source_file_index>
1

> <r_lp_tautomer_probability>
4.69999911640017e-08

> <r_epik_Ionization_Penalty>
  4.3832

> <r_epik_Ionization_Penalty_Charging>
  2.8863

> <r_epik_Ionization_Penalty_Neutral>
  1.4969

> <r_epik_State_Penalty>
 10.6354

> <i_epik_Tot_Q>
1

> <s_epik_Chemistry_Notes>
This compound has an imine and may undergo hydrolysis.

$$$$
4-[(4-methylpiperazin-1-yl)methyl]-~{N}-[4-methyl-3-[[4-(3-pyridyl)pyrimidin-2-yl]amino]phenyl]benzamide
                    3D
 Structure written by MMmdl.
 69 73  0  0  1  0            999 V2000
   -2.2404   -7.1062   10.2698 C   0  0  0  0  0  0
   -2.2221   -6.0497    9.3822 C   0  0  0  0  0  0
   -2.1253   -6.2718    7.9595 C   0  0  0  0  0  0
   -1.4596   -7.3756    7.4513 C   0  0  0  0  0  0
   -1.3325   -7.6417    6.1320 N   0  0  0  0  0  0
   -1.9014   -6.7562    5.2836 C   0  0  0  0  0  0
   -2.5880   -5.6234    5.6901 C   0  0  0  0  0  0
   -2.6975   -5.3838    7.0554 C   0  0  0  0  0  0
   -2.2911   -4.7552    9.7563 N   0  3  0  0  0  0
   -2.3803   -4.5515   11.0844 C   0  0  0  0  0  0
   -2.4535   -3.2106   11.5116 N   0  0  0  0  0  0
   -2.5532   -2.6173   12.7894 C   0  0  0  0  0  0
   -2.0110   -1.3556   13.0342 C   0  0  0  0  0  0
   -2.1181   -0.7845   14.3023 C   0  0  0  0  0  0
   -2.7674   -1.4751   15.3256 C   0  0  0  0  0  0
   -3.3096   -2.7369   15.0808 C   0  0  0  0  0  0
   -3.2025   -3.3078   13.8126 C   0  0  0  0  0  0
   -3.9696   -3.4382   16.1212 N   0  0  0  0  0  0
   -4.5662   -4.6984   16.0575 C   0  0  0  0  0  0
   -5.2019   -5.1249   17.2939 C   0  0  0  0  0  0
   -5.6850   -4.1746   18.1934 C   0  0  0  0  0  0
   -6.2948   -4.5834   19.3795 C   0  0  0  0  0  0
   -6.4214   -5.9426   19.6661 C   0  0  0  0  0  0
   -5.9382   -6.8930   18.7666 C   0  0  0  0  0  0
   -5.3284   -6.4842   17.5806 C   0  0  0  0  0  0
   -7.0758   -6.3825   20.9437 C   0  0  0  0  0  0
   -8.0246   -7.4727   20.7252 N   0  3  0  0  0  0
   -9.2775   -6.9664   20.1515 C   0  0  0  0  0  0
  -10.2743   -8.1080   19.9246 C   0  0  0  0  0  0
  -10.5385   -8.8270   21.1769 N   0  0  0  0  0  0
   -9.2859   -9.3342   21.7503 C   0  0  0  0  0  0
   -8.2880   -8.1933   21.9766 C   0  0  0  0  0  0
  -11.4885   -9.9162   20.9598 C   0  0  0  0  0  0
   -4.6040   -5.4029   15.0509 O   0  0  0  0  0  0
   -1.3103   -0.5936   11.9568 C   0  0  0  0  0  0
   -2.4071   -5.4922   12.0477 N   0  5  0  0  0  0
   -2.3351   -6.7641   11.6033 C   0  0  0  0  0  0
   -2.1903   -8.0686   10.0028 H   0  0  0  0  0  0
   -0.9915   -8.1071    8.1040 H   0  0  0  0  0  0
   -1.7874   -6.9876    4.2295 H   0  0  0  0  0  0
   -3.0258   -4.9453    4.9665 H   0  0  0  0  0  0
   -3.2310   -4.5014    7.4000 H   0  0  0  0  0  0
   -1.6992    0.1980   14.5029 H   0  0  0  0  0  0
   -2.8452   -1.0205   16.3100 H   0  0  0  0  0  0
   -3.6253   -4.2922   13.6220 H   0  0  0  0  0  0
   -4.0539   -2.9874   17.1210 H   0  0  0  0  0  0
   -5.5921   -3.1127   17.9803 H   0  0  0  0  0  0
   -6.6679   -3.8358   20.0745 H   0  0  0  0  0  0
   -6.0324   -7.9540   18.9821 H   0  0  0  0  0  0
   -4.9558   -7.2335   16.8870 H   0  0  0  0  0  0
   -6.3068   -6.7323   21.6481 H   0  0  0  0  0  0
   -7.6211   -5.5360   21.3867 H   0  0  0  0  0  0
   -9.7269   -6.2355   20.8398 H   0  0  0  0  0  0
   -9.0692   -6.4812   19.1864 H   0  0  0  0  0  0
  -11.2217   -7.6976   19.5452 H   0  0  0  0  0  0
   -9.8610   -8.8153   19.1905 H   0  0  0  0  0  0
   -9.4942   -9.8190   22.7154 H   0  0  0  0  0  0
   -8.8372  -10.0656   21.0619 H   0  0  0  0  0  0
   -7.3481   -8.6163   22.3609 H   0  0  0  0  0  0
   -8.7077   -7.4982   22.7187 H   0  0  0  0  0  0
  -11.6703  -10.4391   21.9103 H   0  0  0  0  0  0
  -11.0744  -10.6231   20.2258 H   0  0  0  0  0  0
  -12.4359   -9.5062   20.5798 H   0  0  0  0  0  0
   -0.9612    0.3698   12.3567 H   0  0  0  0  0  0
   -2.0053   -0.4144   11.1231 H   0  0  0  0  0  0
   -0.4487   -1.1753   11.5973 H   0  0  0  0  0  0
   -2.3537   -7.4786   12.3027 H   0  0  0  0  0  0
   -7.5709   -8.1730   20.0085 H   0  0  0  0  0  0
   -2.2790   -3.8973    9.0679 H   0  0  0  0  0  0
  1  2  1  0  0  0
  1 38  1  0  0  0
  1 37  2  0  0  0
  2  9  2  0  0  0
  2  3  1  0  0  0
  3  8  2  0  0  0
  3  4  1  0  0  0
  4  5  2  0  0  0
  4 39  1  0  0  0
  5  6  1  0  0  0
  6  7  2  0  0  0
  6 40  1  0  0  0
  7  8  1  0  0  0
  7 41  1  0  0  0
  8 42  1  0  0  0
  9 10  1  0  0  0
  9 69  1  0  0  0
 10 11  2  0  0  0
 10 36  1  0  0  0
 11 12  1  0  0  0
 12 17  2  0  0  0
 12 13  1  0  0  0
 13 14  2  0  0  0
 13 35  1  0  0  0
 14 15  1  0  0  0
 14 43  1  0  0  0
 15 16  2  0  0  0
 15 44  1  0  0  0
 16 17  1  0  0  0
 16 18  1  0  0  0
 17 45  1  0  0  0
 18 19  1  0  0  0
 18 46  1  0  0  0
 19 20  1  0  0  0
 19 34  2  0  0  0
 20 25  2  0  0  0
 20 21  1  0  0  0
 21 22  2  0  0  0
 21 47  1  0  0  0
 22 23  1  0  0  0
 22 48  1  0  0  0
 23 24  2  0  0  0
 23 26  1  0  0  0
 24 25  1  0  0  0
 24 49  1  0  0  0
 25 50  1  0  0  0
 26 27  1  0  0  0
 26 51  1  0  0  0
 26 52  1  0  0  0
 27 32  1  0  0  0
 27 28  1  0  0  0
 27 68  1  0  0  0
 28 29  1  0  0  0
 28 53  1  0  0  0
 28 54  1  0  0  0
 29 30  1  0  0  0
 29 55  1  0  0  0
 29 56  1  0  0  0
 30 31  1  0  0  0
 30 33  1  0  0  0
 31 32  1  0  0  0
 31 57  1  0  0  0
 31 58  1  0  0  0
 32 59  1  0  0  0
 32 60  1  0  0  0
 33 61  1  0  0  0
 33 62  1  0  0  0
 33 63  1  0  0  0
 35 64  1  0  0  0
 35 65  1  0  0  0
 35 66  1  0  0  0
 36 37  1  0  0  0
 37 67  1  0  0  0
M  CHG  3   9   1  27   1  36  -1
M  END
> <s_m_source_file>
/Users/andrea/Development/mcce-charges/epik_inhibitors/output/Imatinib/Imatinib-input.mol2

> <i_m_source_file_index>
1

> <r_lp_tautomer_probability>
4.69999911640017e-08

> <r_epik_Ionization_Penalty>
  4.3832

> <r_epik_Ionization_Penalty_Charging>
  2.8863

> <r_epik_Ionization_Penalty_Neutral>
  1.4969

> <r_epik_State_Penalty>
 10.6354

> <i_epik_Tot_Q>
1

> <s_epik_Chemistry_Notes>
This compound has an imine and may undergo hydrolysis.

$$$$
4-[(4-methylpiperazin-1-yl)methyl]-~{N}-[4-methyl-3-[[4-(3-pyridyl)pyrimidin-2-yl]amino]phenyl]benzamide
                    3D
 Structure written by MMmdl.
 69 73  0  0  1  0            999 V2000
   -2.2404   -7.1062   10.2698 C   0  0  0  0  0  0
   -2.2221   -6.0497    9.3822 C   0  0  0  0  0  0
   -2.1253   -6.2718    7.9595 C   0  0  0  0  0  0
   -1.4596   -7.3756    7.4513 C   0  0  0  0  0  0
   -1.3325   -7.6417    6.1320 N   0  0  0  0  0  0
   -1.9014   -6.7562    5.2836 C   0  0  0  0  0  0
   -2.5880   -5.6234    5.6901 C   0  0  0  0  0  0
   -2.6975   -5.3838    7.0554 C   0  0  0  0  0  0
   -2.2911   -4.7552    9.7563 N   0  0  0  0  0  0
   -2.3803   -4.5515   11.0844 C   0  0  0  0  0  0
   -2.4535   -3.2106   11.5116 N   0  0  0  0  0  0
   -2.5532   -2.6173   12.7894 C   0  0  0  0  0  0
   -2.0110   -1.3556   13.0342 C   0  0  0  0  0  0
   -2.1181   -0.7845   14.3023 C   0  0  0  0  0  0
   -2.7674   -1.4751   15.3256 C   0  0  0  0  0  0
   -3.3096   -2.7369   15.0808 C   0  0  0  0  0  0
   -3.2025   -3.3078   13.8126 C   0  0  0  0  0  0
   -3.9696   -3.4382   16.1212 N   0  0  0  0  0  0
   -4.5662   -4.6984   16.0575 C   0  0  0  0  0  0
   -5.2019   -5.1249   17.2939 C   0  0  0  0  0  0
   -5.6850   -4.1746   18.1934 C   0  0  0  0  0  0
   -6.2948   -4.5834   19.3795 C   0  0  0  0  0  0
   -6.4214   -5.9426   19.6661 C   0  0  0  0  0  0
   -5.9382   -6.8930   18.7666 C   0  0  0  0  0  0
   -5.3284   -6.4842   17.5806 C   0  0  0  0  0  0
   -7.0758   -6.3825   20.9437 C   0  0  0  0  0  0
   -8.0246   -7.4727   20.7252 N   0  3  0  0  0  0
   -9.2775   -6.9664   20.1515 C   0  0  0  0  0  0
  -10.2743   -8.1080   19.9246 C   0  0  0  0  0  0
  -10.5385   -8.8270   21.1769 N   0  0  0  0  0  0
   -9.2859   -9.3342   21.7503 C   0  0  0  0  0  0
   -8.2880   -8.1933   21.9766 C   0  0  0  0  0  0
  -11.4885   -9.9162   20.9598 C   0  0  0  0  0  0
   -4.6040   -5.4029   15.0509 O   0  0  0  0  0  0
   -1.3103   -0.5936   11.9568 C   0  0  0  0  0  0
   -2.4071   -5.4922   12.0477 N   0  0  0  0  0  0
   -2.3351   -6.7641   11.6033 C   0  0  0  0  0  0
   -2.1903   -8.0686   10.0028 H   0  0  0  0  0  0
   -0.9915   -8.1071    8.1040 H   0  0  0  0  0  0
   -1.7874   -6.9876    4.2295 H   0  0  0  0  0  0
   -3.0258   -4.9453    4.9665 H   0  0  0  0  0  0
   -3.2310   -4.5014    7.4000 H   0  0  0  0  0  0
   -1.6992    0.1980   14.5029 H   0  0  0  0  0  0
   -2.8452   -1.0205   16.3100 H   0  0  0  0  0  0
   -3.6253   -4.2922   13.6220 H   0  0  0  0  0  0
   -4.0539   -2.9874   17.1210 H   0  0  0  0  0  0
   -5.5921   -3.1127   17.9803 H   0  0  0  0  0  0
   -6.6679   -3.8358   20.0745 H   0  0  0  0  0  0
   -6.0324   -7.9540   18.9821 H   0  0  0  0  0  0
   -4.9558   -7.2335   16.8870 H   0  0  0  0  0  0
   -6.3068   -6.7323   21.6481 H   0  0  0  0  0  0
   -7.6211   -5.5360   21.3867 H   0  0  0  0  0  0
   -9.7269   -6.2355   20.8398 H   0  0  0  0  0  0
   -9.0692   -6.4812   19.1864 H   0  0  0  0  0  0
  -11.2217   -7.6976   19.5452 H   0  0  0  0  0  0
   -9.8610   -8.8153   19.1905 H   0  0  0  0  0  0
   -9.4942   -9.8190   22.7154 H   0  0  0  0  0  0
   -8.8372  -10.0656   21.0619 H   0  0  0  0  0  0
   -7.3481   -8.6163   22.3609 H   0  0  0  0  0  0
   -8.7077   -7.4982   22.7187 H   0  0  0  0  0  0
  -11.6703  -10.4391   21.9103 H   0  0  0  0  0  0
  -11.0744  -10.6231   20.2258 H   0  0  0  0  0  0
  -12.4359   -9.5062   20.5798 H   0  0  0  0  0  0
   -0.9612    0.3698   12.3567 H   0  0  0  0  0  0
   -2.0053   -0.4144   11.1231 H   0  0  0  0  0  0
   -0.4487   -1.1753   11.5973 H   0  0  0  0  0  0
   -2.3537   -7.4786   12.3027 H   0  0  0  0  0  0
   -7.5709   -8.1730   20.0085 H   0  0  0  0  0  0
   -2.4809   -5.2899   13.1264 H   0  0  0  0  0  0
  1  2  1  0  0  0
  1 38  1  0  0  0
  1 37  2  0  0  0
  2  9  2  0  0  0
  2  3  1  0  0  0
  3  8  2  0  0  0
  3  4  1  0  0  0
  4  5  2  0  0  0
  4 39  1  0  0  0
  5  6  1  0  0  0
  6  7  2  0  0  0
  6 40  1  0  0  0
  7  8  1  0  0  0
  7 41  1  0  0  0
  8 42  1  0  0  0
  9 10  1  0  0  0
 10 11  2  0  0  0
 10 36  1  0  0  0
 11 12  1  0  0  0
 12 17  2  0  0  0
 12 13  1  0  0  0
 13 14  2  0  0  0
 13 35  1  0  0  0
 14 15  1  0  0  0
 14 43  1  0  0  0
 15 16  2  0  0  0
 15 44  1  0  0  0
 16 17  1  0  0  0
 16 18  1  0  0  0
 17 45  1  0  0  0
 18 19  1  0  0  0
 18 46  1  0  0  0
 19 20  1  0  0  0
 19 34  2  0  0  0
 20 25  2  0  0  0
 20 21  1  0  0  0
 21 22  2  0  0  0
 21 47  1  0  0  0
 22 23  1  0  0  0
 22 48  1  0  0  0
 23 24  2  0  0  0
 23 26  1  0  0  0
 24 25  1  0  0  0
 24 49  1  0  0  0
 25 50  1  0  0  0
 26 27  1  0  0  0
 26 51  1  0  0  0
 26 52  1  0  0  0
 27 32  1  0  0  0
 27 28  1  0  0  0
 27 68  1  0  0  0
 28 29  1  0  0  0
 28 53  1  0  0  0
 28 54  1  0  0  0
 29 30  1  0  0  0
 29 55  1  0  0  0
 29 56  1  0  0  0
 30 31  1  0  0  0
 30 33  1  0  0  0
 31 32  1  0  0  0
 31 57  1  0  0  0
 31 58  1  0  0  0
 32 59  1  0  0  0
 32 60  1  0  0  0
 33 61  1  0  0  0
 33 62  1  0  0  0
 33 63  1  0  0  0
 35 64  1  0  0  0
 35 65  1  0  0  0
 35 66  1  0  0  0
 36 37  1  0  0  0
 36 69  1  0  0  0
 37 67  1  0  0  0
M  CHG  1  27   1
M  END
> <s_m_source_file>
/Users/andrea/Development/mcce-charges/epik_inhibitors/output/Imatinib/Imatinib-input.mol2

> <i_m_source_file_index>
1

> <r_lp_tautomer_probability>
4.69999911640017e-08

> <r_epik_Ionization_Penalty>
  8.3942

> <r_epik_Ionization_Penalty_Charging>
  8.3934

> <r_epik_Ionization_Penalty_Neutral>
  0.0007

> <r_epik_State_Penalty>
 10.6671

> <i_epik_Tot_Q>
1

$$$$
4-[(4-methylpiperazin-1-yl)methyl]-~{N}-[4-methyl-3-[[4-(3-pyridyl)pyrimidin-2-yl]amino]phenyl]benzamide
                    3D
 Structure written by MMmdl.
 69 73  0  0  1  0            999 V2000
   -2.2404   -7.1062   10.2698 C   0  0  0  0  0  0
   -2.2221   -6.0497    9.3822 C   0  0  0  0  0  0
   -2.1253   -6.2718    7.9595 C   0  0  0  0  0  0
   -1.4596   -7.3756    7.4513 C   0  0  0  0  0  0
   -1.3325   -7.6417    6.1320 N   0  0  0  0  0  0
   -1.9014   -6.7562    5.2836 C   0  0  0  0  0  0
   -2.5880   -5.6234    5.6901 C   0  0  0  0  0  0
   -2.6975   -5.3838    7.0554 C   0  0  0  0  0  0
   -2.2911   -4.7552    9.7563 N   0  0  0  0  0  0
   -2.3803   -4.5515   11.0844 C   0  0  0  0  0  0
   -2.4535   -3.2106   11.5116 N   0  0  0  0  0  0
   -2.4532   -1.9825   10.8141 C   0  0  0  0  0  0
   -3.1249   -0.8719   11.3251 C   0  0  0  0  0  0
   -3.1148    0.3333   10.6229 C   0  0  0  0  0  0
   -2.4330    0.4279    9.4097 C   0  0  0  0  0  0
   -1.7613   -0.6828    8.8987 C   0  0  0  0  0  0
   -1.7714   -1.8879    9.6010 C   0  0  0  0  0  0
   -1.0683   -0.5860    7.6657 N   0  0  0  0  0  0
   -0.3483   -1.5855    7.0095 C   0  0  0  0  0  0
    0.2872   -1.1552    5.7742 C   0  0  0  0  0  0
    0.6454    0.1820    5.6035 C   0  0  0  0  0  0
    1.2550    0.5951    4.4188 C   0  0  0  0  0  0
    1.5062   -0.3291    3.4047 C   0  0  0  0  0  0
    1.1479   -1.6664    3.5754 C   0  0  0  0  0  0
    0.5384   -2.0794    4.7601 C   0  0  0  0  0  0
    2.1604    0.1160    2.1288 C   0  0  0  0  0  0
    3.2187   -0.8002    1.7081 N   0  3  0  0  0  0
    4.4328   -0.5968    2.5079 C   0  0  0  0  0  0
    5.5443   -1.5548    2.0658 C   0  0  0  0  0  0
    5.8387   -1.3892    0.6372 N   0  0  0  0  0  0
    4.6249   -1.5935   -0.1628 C   0  0  0  0  0  0
    3.5125   -0.6365    0.2792 C   0  0  0  0  0  0
    6.8981   -2.3037    0.2160 C   0  0  0  0  0  0
   -0.2094   -2.7337    7.4258 O   0  0  0  0  0  0
   -3.8632   -0.9449   12.6220 C   0  0  0  0  0  0
   -2.4071   -5.4922   12.0477 N   0  0  0  0  0  0
   -2.3351   -6.7641   11.6033 C   0  0  0  0  0  0
   -2.1903   -8.0686   10.0028 H   0  0  0  0  0  0
   -0.9915   -8.1071    8.1040 H   0  0  0  0  0  0
   -1.7874   -6.9876    4.2295 H   0  0  0  0  0  0
   -3.0258   -4.9453    4.9665 H   0  0  0  0  0  0
   -3.2310   -4.5014    7.4000 H   0  0  0  0  0  0
   -3.6349    1.2043   11.0128 H   0  0  0  0  0  0
   -2.4315    1.3721    8.8710 H   0  0  0  0  0  0
   -1.2476   -2.7542    9.2020 H   0  0  0  0  0  0
   -1.0604    0.3647    7.1124 H   0  0  0  0  0  0
    0.4548    0.9109    6.3872 H   0  0  0  0  0  0
    1.5303    1.6391    4.2946 H   0  0  0  0  0  0
    1.3397   -2.3930    2.7904 H   0  0  0  0  0  0
    0.2637   -3.1239    4.8822 H   0  0  0  0  0  0
    1.4079    0.1628    1.3278 H   0  0  0  0  0  0
    2.6051    1.1118    2.2727 H   0  0  0  0  0  0
    4.7859    0.4373    2.3819 H   0  0  0  0  0  0
    4.2081   -0.7808    3.5689 H   0  0  0  0  0  0
    6.4579   -1.3473    2.6421 H   0  0  0  0  0  0
    5.2262   -2.5926    2.2440 H   0  0  0  0  0  0
    4.8497   -1.4091   -1.2237 H   0  0  0  0  0  0
    4.2726   -2.6280   -0.0370 H   0  0  0  0  0  0
    2.6074   -0.8507   -0.3081 H   0  0  0  0  0  0
    3.8378    0.3967    0.0877 H   0  0  0  0  0  0
    7.1007   -2.1613   -0.8558 H   0  0  0  0  0  0
    6.5792   -3.3412    0.3943 H   0  0  0  0  0  0
    7.8118   -2.0968    0.7925 H   0  0  0  0  0  0
   -4.3183    0.0325   12.8404 H   0  0  0  0  0  0
   -3.1635   -1.2118   13.4277 H   0  0  0  0  0  0
   -4.6514   -1.7091   12.5527 H   0  0  0  0  0  0
   -2.3537   -7.4786   12.3027 H   0  0  0  0  0  0
    2.8592   -1.8263    1.8747 H   0  0  0  0  0  0
   -2.4809   -5.2899   13.1264 H   0  0  0  0  0  0
  1  2  1  0  0  0
  1 38  1  0  0  0
  1 37  2  0  0  0
  2  9  2  0  0  0
  2  3  1  0  0  0
  3  8  2  0  0  0
  3  4  1  0  0  0
  4  5  2  0  0  0
  4 39  1  0  0  0
  5  6  1  0  0  0
  6  7  2  0  0  0
  6 40  1  0  0  0
  7  8  1  0  0  0
  7 41  1  0  0  0
  8 42  1  0  0  0
  9 10  1  0  0  0
 10 11  2  0  0  0
 10 36  1  0  0  0
 11 12  1  0  0  0
 12 17  2  0  0  0
 12 13  1  0  0  0
 13 14  2  0  0  0
 13 35  1  0  0  0
 14 15  1  0  0  0
 14 43  1  0  0  0
 15 16  2  0  0  0
 15 44  1  0  0  0
 16 17  1  0  0  0
 16 18  1  0  0  0
 17 45  1  0  0  0
 18 19  1  0  0  0
 18 46  1  0  0  0
 19 20  1  0  0  0
 19 34  2  0  0  0
 20 25  2  0  0  0
 20 21  1  0  0  0
 21 22  2  0  0  0
 21 47  1  0  0  0
 22 23  1  0  0  0
 22 48  1  0  0  0
 23 24  2  0  0  0
 23 26  1  0  0  0
 24 25  1  0  0  0
 24 49  1  0  0  0
 25 50  1  0  0  0
 26 27  1  0  0  0
 26 51  1  0  0  0
 26 52  1  0  0  0
 27 32  1  0  0  0
 27 28  1  0  0  0
 27 68  1  0  0  0
 28 29  1  0  0  0
 28 53  1  0  0  0
 28 54  1  0  0  0
 29 30  1  0  0  0
 29 55  1  0  0  0
 29 56  1  0  0  0
 30 31  1  0  0  0
 30 33  1  0  0  0
 31 32  1  0  0  0
 31 57  1  0  0  0
 31 58  1  0  0  0
 32 59  1  0  0  0
 32 60  1  0  0  0
 33 61  1  0  0  0
 33 62  1  0  0  0
 33 63  1  0  0  0
 35 64  1  0  0  0
 35 65  1  0  0  0
 35 66  1  0  0  0
 36 37  1  0  0  0
 36 69  1  0  0  0
 37 67  1  0  0  0
M  CHG  1  27   1
M  END
> <s_m_source_file>
/Users/andrea/Development/mcce-charges/epik_inhibitors/output/Imatinib/Imatinib-input.mol2

> <i_m_source_file_index>
1

> <r_lp_tautomer_probability>
4.69999911640017e-08

> <r_epik_Ionization_Penalty>
  8.3942

> <r_epik_Ionization_Penalty_Charging>
  8.3934

> <r_epik_Ionization_Penalty_Neutral>
  0.0007

> <r_epik_State_Penalty>
 10.6770

> <i_epik_Tot_Q>
1

$$$$
4-[(4-methylpiperazin-1-yl)methyl]-~{N}-[4-methyl-3-[[4-(3-pyridyl)pyrimidin-2-yl]amino]phenyl]benzamide
                    3D
 Structure written by MMmdl.
 69 73  0  0  1  0            999 V2000
   -2.2404   -7.1062   10.2698 C   0  0  0  0  0  0
   -2.2221   -6.0497    9.3822 C   0  0  0  0  0  0
   -2.1253   -6.2718    7.9595 C   0  0  0  0  0  0
   -1.4596   -7.3756    7.4513 C   0  0  0  0  0  0
   -1.3325   -7.6417    6.1320 N   0  0  0  0  0  0
   -1.9014   -6.7562    5.2836 C   0  0  0  0  0  0
   -2.5880   -5.6234    5.6901 C   0  0  0  0  0  0
   -2.6975   -5.3838    7.0554 C   0  0  0  0  0  0
   -2.2911   -4.7552    9.7563 N   0  0  0  0  0  0
   -2.3803   -4.5515   11.0844 C   0  0  0  0  0  0
   -2.4535   -3.2106   11.5116 N   0  0  0  0  0  0
   -2.4532   -1.9825   10.8141 C   0  0  0  0  0  0
   -3.1249   -0.8719   11.3251 C   0  0  0  0  0  0
   -3.1148    0.3333   10.6229 C   0  0  0  0  0  0
   -2.4330    0.4279    9.4097 C   0  0  0  0  0  0
   -1.7613   -0.6828    8.8987 C   0  0  0  0  0  0
   -1.7714   -1.8879    9.6010 C   0  0  0  0  0  0
   -1.0683   -0.5860    7.6657 N   0  0  0  0  0  0
   -0.3483   -1.5855    7.0095 C   0  0  0  0  0  0
    0.2872   -1.1552    5.7742 C   0  0  0  0  0  0
    0.6454    0.1820    5.6035 C   0  0  0  0  0  0
    1.2550    0.5951    4.4188 C   0  0  0  0  0  0
    1.5062   -0.3291    3.4047 C   0  0  0  0  0  0
    1.1479   -1.6664    3.5754 C   0  0  0  0  0  0
    0.5384   -2.0794    4.7601 C   0  0  0  0  0  0
    2.1604    0.1160    2.1288 C   0  0  0  0  0  0
    3.2187   -0.8002    1.7081 N   0  0  0  0  0  0
    4.4328   -0.5968    2.5079 C   0  0  0  0  0  0
    5.5443   -1.5548    2.0658 C   0  0  0  0  0  0
    5.8387   -1.3892    0.6372 N   0  3  0  0  0  0
    4.6249   -1.5935   -0.1628 C   0  0  0  0  0  0
    3.5125   -0.6365    0.2792 C   0  0  0  0  0  0
    6.8981   -2.3037    0.2160 C   0  0  0  0  0  0
   -0.2094   -2.7337    7.4258 O   0  0  0  0  0  0
   -3.8632   -0.9449   12.6220 C   0  0  0  0  0  0
   -2.4071   -5.4922   12.0477 N   0  0  0  0  0  0
   -2.3351   -6.7641   11.6033 C   0  0  0  0  0  0
   -2.1903   -8.0686   10.0028 H   0  0  0  0  0  0
   -0.9915   -8.1071    8.1040 H   0  0  0  0  0  0
   -1.7874   -6.9876    4.2295 H   0  0  0  0  0  0
   -3.0258   -4.9453    4.9665 H   0  0  0  0  0  0
   -3.2310   -4.5014    7.4000 H   0  0  0  0  0  0
   -3.6349    1.2043   11.0128 H   0  0  0  0  0  0
   -2.4315    1.3721    8.8710 H   0  0  0  0  0  0
   -1.2476   -2.7542    9.2020 H   0  0  0  0  0  0
   -1.0604    0.3647    7.1124 H   0  0  0  0  0  0
    0.4548    0.9109    6.3872 H   0  0  0  0  0  0
    1.5303    1.6391    4.2946 H   0  0  0  0  0  0
    1.3397   -2.3930    2.7904 H   0  0  0  0  0  0
    0.2637   -3.1239    4.8822 H   0  0  0  0  0  0
    1.4079    0.1628    1.3278 H   0  0  0  0  0  0
    2.6051    1.1118    2.2727 H   0  0  0  0  0  0
    4.7859    0.4373    2.3819 H   0  0  0  0  0  0
    4.2081   -0.7808    3.5689 H   0  0  0  0  0  0
    6.4579   -1.3473    2.6421 H   0  0  0  0  0  0
    5.2262   -2.5926    2.2440 H   0  0  0  0  0  0
    4.8497   -1.4091   -1.2237 H   0  0  0  0  0  0
    4.2726   -2.6280   -0.0370 H   0  0  0  0  0  0
    2.6074   -0.8507   -0.3081 H   0  0  0  0  0  0
    3.8378    0.3967    0.0877 H   0  0  0  0  0  0
    7.1007   -2.1613   -0.8558 H   0  0  0  0  0  0
    6.5792   -3.3412    0.3943 H   0  0  0  0  0  0
    7.8118   -2.0968    0.7925 H   0  0  0  0  0  0
   -4.3183    0.0325   12.8404 H   0  0  0  0  0  0
   -3.1635   -1.2118   13.4277 H   0  0  0  0  0  0
   -4.6514   -1.7091   12.5527 H   0  0  0  0  0  0
   -2.3537   -7.4786   12.3027 H   0  0  0  0  0  0
    6.1974   -0.3626    0.4714 H   0  0  0  0  0  0
   -2.4809   -5.2899   13.1264 H   0  0  0  0  0  0
  1  2  1  0  0  0
  1 38  1  0  0  0
  1 37  2  0  0  0
  2  9  2  0  0  0
  2  3  1  0  0  0
  3  8  2  0  0  0
  3  4  1  0  0  0
  4  5  2  0  0  0
  4 39  1  0  0  0
  5  6  1  0  0  0
  6  7  2  0  0  0
  6 40  1  0  0  0
  7  8  1  0  0  0
  7 41  1  0  0  0
  8 42  1  0  0  0
  9 10  1  0  0  0
 10 11  2  0  0  0
 10 36  1  0  0  0
 11 12  1  0  0  0
 12 17  2  0  0  0
 12 13  1  0  0  0
 13 14  2  0  0  0
 13 35  1  0  0  0
 14 15  1  0  0  0
 14 43  1  0  0  0
 15 16  2  0  0  0
 15 44  1  0  0  0
 16 17  1  0  0  0
 16 18  1  0  0  0
 17 45  1  0  0  0
 18 19  1  0  0  0
 18 46  1  0  0  0
 19 20  1  0  0  0
 19 34  2  0  0  0
 20 25  2  0  0  0
 20 21  1  0  0  0
 21 22  2  0  0  0
 21 47  1  0  0  0
 22 23  1  0  0  0
 22 48  1  0  0  0
 23 24  2  0  0  0
 23 26  1  0  0  0
 24 25  1  0  0  0
 24 49  1  0  0  0
 25 50  1  0  0  0
 26 27  1  0  0  0
 26 51  1  0  0  0
 26 52  1  0  0  0
 27 32  1  0  0  0
 27 28  1  0  0  0
 28 29  1  0  0  0
 28 53  1  0  0  0
 28 54  1  0  0  0
 29 30  1  0  0  0
 29 55  1  0  0  0
 29 56  1  0  0  0
 30 31  1  0  0  0
 30 33  1  0  0  0
 30 68  1  0  0  0
 31 32  1  0  0  0
 31 57  1  0  0  0
 31 58  1  0  0  0
 32 59  1  0  0  0
 32 60  1  0  0  0
 33 61  1  0  0  0
 33 62  1  0  0  0
 33 63  1  0  0  0
 35 64  1  0  0  0
 35 65  1  0  0  0
 35 66  1  0  0  0
 36 37  1  0  0  0
 36 69  1  0  0  0
 37 67  1  0  0  0
M  CHG  1  30   1
M  END
> <s_m_source_file>
/Users/andrea/Development/mcce-charges/epik_inhibitors/output/Imatinib/Imatinib-input.mol2

> <i_m_source_file_index>
1

> <r_epik_Ionization_Penalty>
  8.4350

> <r_epik_Ionization_Penalty_Charging>
  8.4117

> <r_epik_Ionization_Penalty_Neutral>
  0.0233

> <r_epik_State_Penalty>
 10.9797

> <i_epik_Tot_Q>
1

$$$$
4-[(4-methylpiperazin-1-yl)methyl]-~{N}-[4-methyl-3-[[4-(3-pyridyl)pyrimidin-2-yl]amino]phenyl]benzamide
                    3D
 Structure written by MMmdl.
 69 73  0  0  1  0            999 V2000
   -2.2404   -7.1062   10.2698 C   0  0  0  0  0  0
   -2.2221   -6.0497    9.3822 C   0  0  0  0  0  0
   -2.1253   -6.2718    7.9595 C   0  0  0  0  0  0
   -1.4596   -7.3756    7.4513 C   0  0  0  0  0  0
   -1.3325   -7.6417    6.1320 N   0  0  0  0  0  0
   -1.9014   -6.7562    5.2836 C   0  0  0  0  0  0
   -2.5880   -5.6234    5.6901 C   0  0  0  0  0  0
   -2.6975   -5.3838    7.0554 C   0  0  0  0  0  0
   -2.2911   -4.7552    9.7563 N   0  0  0  0  0  0
   -2.3803   -4.5515   11.0844 C   0  0  0  0  0  0
   -2.4535   -3.2106   11.5116 N   0  0  0  0  0  0
   -2.5532   -2.6173   12.7894 C   0  0  0  0  0  0
   -2.0110   -1.3556   13.0342 C   0  0  0  0  0  0
   -2.1181   -0.7845   14.3023 C   0  0  0  0  0  0
   -2.7674   -1.4751   15.3256 C   0  0  0  0  0  0
   -3.3096   -2.7369   15.0808 C   0  0  0  0  0  0
   -3.2025   -3.3078   13.8126 C   0  0  0  0  0  0
   -3.9696   -3.4382   16.1212 N   0  0  0  0  0  0
   -4.5662   -4.6984   16.0575 C   0  0  0  0  0  0
   -5.2019   -5.1249   17.2939 C   0  0  0  0  0  0
   -5.6850   -4.1746   18.1934 C   0  0  0  0  0  0
   -6.2948   -4.5834   19.3795 C   0  0  0  0  0  0
   -6.4214   -5.9426   19.6661 C   0  0  0  0  0  0
   -5.9382   -6.8930   18.7666 C   0  0  0  0  0  0
   -5.3284   -6.4842   17.5806 C   0  0  0  0  0  0
   -7.0758   -6.3825   20.9437 C   0  0  0  0  0  0
   -8.0246   -7.4727   20.7252 N   0  0  0  0  0  0
   -9.2775   -6.9664   20.1515 C   0  0  0  0  0  0
  -10.2743   -8.1080   19.9246 C   0  0  0  0  0  0
  -10.5385   -8.8270   21.1769 N   0  3  0  0  0  0
   -9.2859   -9.3342   21.7503 C   0  0  0  0  0  0
   -8.2880   -8.1933   21.9766 C   0  0  0  0  0  0
  -11.4885   -9.9162   20.9598 C   0  0  0  0  0  0
   -4.6040   -5.4029   15.0509 O   0  0  0  0  0  0
   -1.3103   -0.5936   11.9568 C   0  0  0  0  0  0
   -2.4071   -5.4922   12.0477 N   0  0  0  0  0  0
   -2.3351   -6.7641   11.6033 C   0  0  0  0  0  0
   -2.1903   -8.0686   10.0028 H   0  0  0  0  0  0
   -0.9915   -8.1071    8.1040 H   0  0  0  0  0  0
   -1.7874   -6.9876    4.2295 H   0  0  0  0  0  0
   -3.0258   -4.9453    4.9665 H   0  0  0  0  0  0
   -3.2310   -4.5014    7.4000 H   0  0  0  0  0  0
   -1.6992    0.1980   14.5029 H   0  0  0  0  0  0
   -2.8452   -1.0205   16.3100 H   0  0  0  0  0  0
   -3.6253   -4.2922   13.6220 H   0  0  0  0  0  0
   -4.0539   -2.9874   17.1210 H   0  0  0  0  0  0
   -5.5921   -3.1127   17.9803 H   0  0  0  0  0  0
   -6.6679   -3.8358   20.0745 H   0  0  0  0  0  0
   -6.0324   -7.9540   18.9821 H   0  0  0  0  0  0
   -4.9558   -7.2335   16.8870 H   0  0  0  0  0  0
   -6.3068   -6.7323   21.6481 H   0  0  0  0  0  0
   -7.6211   -5.5360   21.3867 H   0  0  0  0  0  0
   -9.7269   -6.2355   20.8398 H   0  0  0  0  0  0
   -9.0692   -6.4812   19.1864 H   0  0  0  0  0  0
  -11.2217   -7.6976   19.5452 H   0  0  0  0  0  0
   -9.8610   -8.8153   19.1905 H   0  0  0  0  0  0
   -9.4942   -9.8190   22.7154 H   0  0  0  0  0  0
   -8.8372  -10.0656   21.0619 H   0  0  0  0  0  0
   -7.3481   -8.6163   22.3609 H   0  0  0  0  0  0
   -8.7077   -7.4982   22.7187 H   0  0  0  0  0  0
  -11.6703  -10.4391   21.9103 H   0  0  0  0  0  0
  -11.0744  -10.6231   20.2258 H   0  0  0  0  0  0
  -12.4359   -9.5062   20.5798 H   0  0  0  0  0  0
   -0.9612    0.3698   12.3567 H   0  0  0  0  0  0
   -2.0053   -0.4144   11.1231 H   0  0  0  0  0  0
   -0.4487   -1.1753   11.5973 H   0  0  0  0  0  0
   -2.3537   -7.4786   12.3027 H   0  0  0  0  0  0
  -10.9916   -8.1258   21.8932 H   0  0  0  0  0  0
   -2.4809   -5.2899   13.1264 H   0  0  0  0  0  0
  1  2  1  0  0  0
  1 38  1  0  0  0
  1 37  2  0  0  0
  2  9  2  0  0  0
  2  3  1  0  0  0
  3  8  2  0  0  0
  3  4  1  0  0  0
  4  5  2  0  0  0
  4 39  1  0  0  0
  5  6  1  0  0  0
  6  7  2  0  0  0
  6 40  1  0  0  0
  7  8  1  0  0  0
  7 41  1  0  0  0
  8 42  1  0  0  0
  9 10  1  0  0  0
 10 11  2  0  0  0
 10 36  1  0  0  0
 11 12  1  0  0  0
 12 17  2  0  0  0
 12 13  1  0  0  0
 13 14  2  0  0  0
 13 35  1  0  0  0
 14 15  1  0  0  0
 14 43  1  0  0  0
 15 16  2  0  0  0
 15 44  1  0  0  0
 16 17  1  0  0  0
 16 18  1  0  0  0
 17 45  1  0  0  0
 18 19  1  0  0  0
 18 46  1  0  0  0
 19 20  1  0  0  0
 19 34  2  0  0  0
 20 25  2  0  0  0
 20 21  1  0  0  0
 21 22  2  0  0  0
 21 47  1  0  0  0
 22 23  1  0  0  0
 22 48  1  0  0  0
 23 24  2  0  0  0
 23 26  1  0  0  0
 24 25  1  0  0  0
 24 49  1  0  0  0
 25 50  1  0  0  0
 26 27  1  0  0  0
 26 51  1  0  0  0
 26 52  1  0  0  0
 27 32  1  0  0  0
 27 28  1  0  0  0
 28 29  1  0  0  0
 28 53  1  0  0  0
 28 54  1  0  0  0
 29 30  1  0  0  0
 29 55  1  0  0  0
 29 56  1  0  0  0
 30 31  1  0  0  0
 30 33  1  0  0  0
 30 68  1  0  0  0
 31 32  1  0  0  0
 31 57  1  0  0  0
 31 58  1  0  0  0
 32 59  1  0  0  0
 32 60  1  0  0  0
 33 61  1  0  0  0
 33 62  1  0  0  0
 33 63  1  0  0  0
 35 64  1  0  0  0
 35 65  1  0  0  0
 35 66  1  0  0  0
 36 37  1  0  0  0
 36 69  1  0  0  0
 37 67  1  0  0  0
M  CHG  1  30   1
M  END
> <s_m_source_file>
/Users/andrea/Development/mcce-charges/epik_inhibitors/output/Imatinib/Imatinib-input.mol2

> <i_m_source_file_index>
1

> <r_epik_Ionization_Penalty>
  8.4350

> <r_epik_Ionization_Penalty_Charging>
  8.4117

> <r_epik_Ionization_Penalty_Neutral>
  0.0233

> <r_epik_State_Penalty>
 10.9797

> <i_epik_Tot_Q>
1

$$$$
4-[(4-methylpiperazin-1-yl)methyl]-~{N}-[4-methyl-3-[[4-(3-pyridyl)pyrimidin-2-yl]amino]phenyl]benzamide
                    3D
 Structure written by MMmdl.
 69 73  0  0  1  0            999 V2000
   -2.2404   -7.1062   10.2698 C   0  0  0  0  0  0
   -2.2221   -6.0497    9.3822 C   0  0  0  0  0  0
   -2.1253   -6.2718    7.9595 C   0  0  0  0  0  0
   -1.4596   -7.3756    7.4513 C   0  0  0  0  0  0
   -1.3325   -7.6417    6.1320 N   0  0  0  0  0  0
   -1.9014   -6.7562    5.2836 C   0  0  0  0  0  0
   -2.5880   -5.6234    5.6901 C   0  0  0  0  0  0
   -2.6975   -5.3838    7.0554 C   0  0  0  0  0  0
   -2.2911   -4.7552    9.7563 N   0  3  0  0  0  0
   -2.3803   -4.5515   11.0844 C   0  0  0  0  0  0
   -2.4535   -3.2106   11.5116 N   0  0  0  0  0  0
   -2.4532   -1.9825   10.8141 C   0  0  0  0  0  0
   -3.1249   -0.8719   11.3251 C   0  0  0  0  0  0
   -3.1148    0.3333   10.6229 C   0  0  0  0  0  0
   -2.4330    0.4279    9.4097 C   0  0  0  0  0  0
   -1.7613   -0.6828    8.8987 C   0  0  0  0  0  0
   -1.7714   -1.8879    9.6010 C   0  0  0  0  0  0
   -1.0683   -0.5860    7.6657 N   0  0  0  0  0  0
   -0.3483   -1.5855    7.0095 C   0  0  0  0  0  0
    0.2872   -1.1552    5.7742 C   0  0  0  0  0  0
    0.6454    0.1820    5.6035 C   0  0  0  0  0  0
    1.2550    0.5951    4.4188 C   0  0  0  0  0  0
    1.5062   -0.3291    3.4047 C   0  0  0  0  0  0
    1.1479   -1.6664    3.5754 C   0  0  0  0  0  0
    0.5384   -2.0794    4.7601 C   0  0  0  0  0  0
    2.1604    0.1160    2.1288 C   0  0  0  0  0  0
    3.2187   -0.8002    1.7081 N   0  0  0  0  0  0
    4.4328   -0.5968    2.5079 C   0  0  0  0  0  0
    5.5443   -1.5548    2.0658 C   0  0  0  0  0  0
    5.8387   -1.3892    0.6372 N   0  3  0  0  0  0
    4.6249   -1.5935   -0.1628 C   0  0  0  0  0  0
    3.5125   -0.6365    0.2792 C   0  0  0  0  0  0
    6.8981   -2.3037    0.2160 C   0  0  0  0  0  0
   -0.2094   -2.7337    7.4258 O   0  0  0  0  0  0
   -3.8632   -0.9449   12.6220 C   0  0  0  0  0  0
   -2.4071   -5.4922   12.0477 N   0  5  0  0  0  0
   -2.3351   -6.7641   11.6033 C   0  0  0  0  0  0
   -2.1903   -8.0686   10.0028 H   0  0  0  0  0  0
   -0.9915   -8.1071    8.1040 H   0  0  0  0  0  0
   -1.7874   -6.9876    4.2295 H   0  0  0  0  0  0
   -3.0258   -4.9453    4.9665 H   0  0  0  0  0  0
   -3.2310   -4.5014    7.4000 H   0  0  0  0  0  0
   -3.6349    1.2043   11.0128 H   0  0  0  0  0  0
   -2.4315    1.3721    8.8710 H   0  0  0  0  0  0
   -1.2476   -2.7542    9.2020 H   0  0  0  0  0  0
   -1.0604    0.3647    7.1124 H   0  0  0  0  0  0
    0.4548    0.9109    6.3872 H   0  0  0  0  0  0
    1.5303    1.6391    4.2946 H   0  0  0  0  0  0
    1.3397   -2.3930    2.7904 H   0  0  0  0  0  0
    0.2637   -3.1239    4.8822 H   0  0  0  0  0  0
    1.4079    0.1628    1.3278 H   0  0  0  0  0  0
    2.6051    1.1118    2.2727 H   0  0  0  0  0  0
    4.7859    0.4373    2.3819 H   0  0  0  0  0  0
    4.2081   -0.7808    3.5689 H   0  0  0  0  0  0
    6.4579   -1.3473    2.6421 H   0  0  0  0  0  0
    5.2262   -2.5926    2.2440 H   0  0  0  0  0  0
    4.8497   -1.4091   -1.2237 H   0  0  0  0  0  0
    4.2726   -2.6280   -0.0370 H   0  0  0  0  0  0
    2.6074   -0.8507   -0.3081 H   0  0  0  0  0  0
    3.8378    0.3967    0.0877 H   0  0  0  0  0  0
    7.1007   -2.1613   -0.8558 H   0  0  0  0  0  0
    6.5792   -3.3412    0.3943 H   0  0  0  0  0  0
    7.8118   -2.0968    0.7925 H   0  0  0  0  0  0
   -4.3183    0.0325   12.8404 H   0  0  0  0  0  0
   -3.1635   -1.2118   13.4277 H   0  0  0  0  0  0
   -4.6514   -1.7091   12.5527 H   0  0  0  0  0  0
   -2.3537   -7.4786   12.3027 H   0  0  0  0  0  0
    6.1974   -0.3626    0.4714 H   0  0  0  0  0  0
   -2.2790   -3.8973    9.0679 H   0  0  0  0  0  0
  1  2  1  0  0  0
  1 38  1  0  0  0
  1 37  2  0  0  0
  2  9  2  0  0  0
  2  3  1  0  0  0
  3  8  2  0  0  0
  3  4  1  0  0  0
  4  5  2  0  0  0
  4 39  1  0  0  0
  5  6  1  0  0  0
  6  7  2  0  0  0
  6 40  1  0  0  0
  7  8  1  0  0  0
  7 41  1  0  0  0
  8 42  1  0  0  0
  9 10  1  0  0  0
  9 69  1  0  0  0
 10 11  2  0  0  0
 10 36  1  0  0  0
 11 12  1  0  0  0
 12 17  2  0  0  0
 12 13  1  0  0  0
 13 14  2  0  0  0
 13 35  1  0  0  0
 14 15  1  0  0  0
 14 43  1  0  0  0
 15 16  2  0  0  0
 15 44  1  0  0  0
 16 17  1  0  0  0
 16 18  1  0  0  0
 17 45  1  0  0  0
 18 19  1  0  0  0
 18 46  1  0  0  0
 19 20  1  0  0  0
 19 34  2  0  0  0
 20 25  2  0  0  0
 20 21  1  0  0  0
 21 22  2  0  0  0
 21 47  1  0  0  0
 22 23  1  0  0  0
 22 48  1  0  0  0
 23 24  2  0  0  0
 23 26  1  0  0  0
 24 25  1  0  0  0
 24 49  1  0  0  0
 25 50  1  0  0  0
 26 27  1  0  0  0
 26 51  1  0  0  0
 26 52  1  0  0  0
 27 32  1  0  0  0
 27 28  1  0  0  0
 28 29  1  0  0  0
 28 53  1  0  0  0
 28 54  1  0  0  0
 29 30  1  0  0  0
 29 55  1  0  0  0
 29 56  1  0  0  0
 30 31  1  0  0  0
 30 33  1  0  0  0
 30 68  1  0  0  0
 31 32  1  0  0  0
 31 57  1  0  0  0
 31 58  1  0  0  0
 32 59  1  0  0  0
 32 60  1  0  0  0
 33 61  1  0  0  0
 33 62  1  0  0  0
 33 63  1  0  0  0
 35 64  1  0  0  0
 35 65  1  0  0  0
 35 66  1  0  0  0
 36 37  1  0  0  0
 37 67  1  0  0  0
M  CHG  3   9   1  30   1  36  -1
M  END
> <s_m_source_file>
/Users/andrea/Development/mcce-charges/epik_inhibitors/output/Imatinib/Imatinib-input.mol2

> <i_m_source_file_index>
1

> <r_epik_Ionization_Penalty>
  4.4240

> <r_epik_Ionization_Penalty_Charging>
  2.9045

> <r_epik_Ionization_Penalty_Neutral>
  1.5195

> <r_epik_State_Penalty>
 11.0385

> <i_epik_Tot_Q>
1

> <s_epik_Chemistry_Notes>
This compound has an imine and may undergo hydrolysis.

$$$$
4-[(4-methylpiperazin-1-yl)methyl]-~{N}-[4-methyl-3-[[4-(3-pyridyl)pyrimidin-2-yl]amino]phenyl]benzamide
                    3D
 Structure written by MMmdl.
 69 73  0  0  1  0            999 V2000
   -2.2404   -7.1062   10.2698 C   0  0  0  0  0  0
   -2.2221   -6.0497    9.3822 C   0  0  0  0  0  0
   -2.1253   -6.2718    7.9595 C   0  0  0  0  0  0
   -1.4596   -7.3756    7.4513 C   0  0  0  0  0  0
   -1.3325   -7.6417    6.1320 N   0  0  0  0  0  0
   -1.9014   -6.7562    5.2836 C   0  0  0  0  0  0
   -2.5880   -5.6234    5.6901 C   0  0  0  0  0  0
   -2.6975   -5.3838    7.0554 C   0  0  0  0  0  0
   -2.2911   -4.7552    9.7563 N   0  3  0  0  0  0
   -2.3803   -4.5515   11.0844 C   0  0  0  0  0  0
   -2.4535   -3.2106   11.5116 N   0  0  0  0  0  0
   -2.5532   -2.6173   12.7894 C   0  0  0  0  0  0
   -2.0110   -1.3556   13.0342 C   0  0  0  0  0  0
   -2.1181   -0.7845   14.3023 C   0  0  0  0  0  0
   -2.7674   -1.4751   15.3256 C   0  0  0  0  0  0
   -3.3096   -2.7369   15.0808 C   0  0  0  0  0  0
   -3.2025   -3.3078   13.8126 C   0  0  0  0  0  0
   -3.9696   -3.4382   16.1212 N   0  0  0  0  0  0
   -4.5662   -4.6984   16.0575 C   0  0  0  0  0  0
   -5.2019   -5.1249   17.2939 C   0  0  0  0  0  0
   -5.6850   -4.1746   18.1934 C   0  0  0  0  0  0
   -6.2948   -4.5834   19.3795 C   0  0  0  0  0  0
   -6.4214   -5.9426   19.6661 C   0  0  0  0  0  0
   -5.9382   -6.8930   18.7666 C   0  0  0  0  0  0
   -5.3284   -6.4842   17.5806 C   0  0  0  0  0  0
   -7.0758   -6.3825   20.9437 C   0  0  0  0  0  0
   -8.0246   -7.4727   20.7252 N   0  0  0  0  0  0
   -9.2775   -6.9664   20.1515 C   0  0  0  0  0  0
  -10.2743   -8.1080   19.9246 C   0  0  0  0  0  0
  -10.5385   -8.8270   21.1769 N   0  3  0  0  0  0
   -9.2859   -9.3342   21.7503 C   0  0  0  0  0  0
   -8.2880   -8.1933   21.9766 C   0  0  0  0  0  0
  -11.4885   -9.9162   20.9598 C   0  0  0  0  0  0
   -4.6040   -5.4029   15.0509 O   0  0  0  0  0  0
   -1.3103   -0.5936   11.9568 C   0  0  0  0  0  0
   -2.4071   -5.4922   12.0477 N   0  5  0  0  0  0
   -2.3351   -6.7641   11.6033 C   0  0  0  0  0  0
   -2.1903   -8.0686   10.0028 H   0  0  0  0  0  0
   -0.9915   -8.1071    8.1040 H   0  0  0  0  0  0
   -1.7874   -6.9876    4.2295 H   0  0  0  0  0  0
   -3.0258   -4.9453    4.9665 H   0  0  0  0  0  0
   -3.2310   -4.5014    7.4000 H   0  0  0  0  0  0
   -1.6992    0.1980   14.5029 H   0  0  0  0  0  0
   -2.8452   -1.0205   16.3100 H   0  0  0  0  0  0
   -3.6253   -4.2922   13.6220 H   0  0  0  0  0  0
   -4.0539   -2.9874   17.1210 H   0  0  0  0  0  0
   -5.5921   -3.1127   17.9803 H   0  0  0  0  0  0
   -6.6679   -3.8358   20.0745 H   0  0  0  0  0  0
   -6.0324   -7.9540   18.9821 H   0  0  0  0  0  0
   -4.9558   -7.2335   16.8870 H   0  0  0  0  0  0
   -6.3068   -6.7323   21.6481 H   0  0  0  0  0  0
   -7.6211   -5.5360   21.3867 H   0  0  0  0  0  0
   -9.7269   -6.2355   20.8398 H   0  0  0  0  0  0
   -9.0692   -6.4812   19.1864 H   0  0  0  0  0  0
  -11.2217   -7.6976   19.5452 H   0  0  0  0  0  0
   -9.8610   -8.8153   19.1905 H   0  0  0  0  0  0
   -9.4942   -9.8190   22.7154 H   0  0  0  0  0  0
   -8.8372  -10.0656   21.0619 H   0  0  0  0  0  0
   -7.3481   -8.6163   22.3609 H   0  0  0  0  0  0
   -8.7077   -7.4982   22.7187 H   0  0  0  0  0  0
  -11.6703  -10.4391   21.9103 H   0  0  0  0  0  0
  -11.0744  -10.6231   20.2258 H   0  0  0  0  0  0
  -12.4359   -9.5062   20.5798 H   0  0  0  0  0  0
   -0.9612    0.3698   12.3567 H   0  0  0  0  0  0
   -2.0053   -0.4144   11.1231 H   0  0  0  0  0  0
   -0.4487   -1.1753   11.5973 H   0  0  0  0  0  0
   -2.3537   -7.4786   12.3027 H   0  0  0  0  0  0
  -10.9916   -8.1258   21.8932 H   0  0  0  0  0  0
   -2.2790   -3.8973    9.0679 H   0  0  0  0  0  0
  1  2  1  0  0  0
  1 38  1  0  0  0
  1 37  2  0  0  0
  2  9  2  0  0  0
  2  3  1  0  0  0
  3  8  2  0  0  0
  3  4  1  0  0  0
  4  5  2  0  0  0
  4 39  1  0  0  0
  5  6  1  0  0  0
  6  7  2  0  0  0
  6 40  1  0  0  0
  7  8  1  0  0  0
  7 41  1  0  0  0
  8 42  1  0  0  0
  9 10  1  0  0  0
  9 69  1  0  0  0
 10 11  2  0  0  0
 10 36  1  0  0  0
 11 12  1  0  0  0
 12 17  2  0  0  0
 12 13  1  0  0  0
 13 14  2  0  0  0
 13 35  1  0  0  0
 14 15  1  0  0  0
 14 43  1  0  0  0
 15 16  2  0  0  0
 15 44  1  0  0  0
 16 17  1  0  0  0
 16 18  1  0  0  0
 17 45  1  0  0  0
 18 19  1  0  0  0
 18 46  1  0  0  0
 19 20  1  0  0  0
 19 34  2  0  0  0
 20 25  2  0  0  0
 20 21  1  0  0  0
 21 22  2  0  0  0
 21 47  1  0  0  0
 22 23  1  0  0  0
 22 48  1  0  0  0
 23 24  2  0  0  0
 23 26  1  0  0  0
 24 25  1  0  0  0
 24 49  1  0  0  0
 25 50  1  0  0  0
 26 27  1  0  0  0
 26 51  1  0  0  0
 26 52  1  0  0  0
 27 32  1  0  0  0
 27 28  1  0  0  0
 28 29  1  0  0  0
 28 53  1  0  0  0
 28 54  1  0  0  0
 29 30  1  0  0  0
 29 55  1  0  0  0
 29 56  1  0  0  0
 30 31  1  0  0  0
 30 33  1  0  0  0
 30 68  1  0  0  0
 31 32  1  0  0  0
 31 57  1  0  0  0
 31 58  1  0  0  0
 32 59  1  0  0  0
 32 60  1  0  0  0
 33 61  1  0  0  0
 33 62  1  0  0  0
 33 63  1  0  0  0
 35 64  1  0  0  0
 35 65  1  0  0  0
 35 66  1  0  0  0
 36 37  1  0  0  0
 37 67  1  0  0  0
M  CHG  3   9   1  30   1  36  -1
M  END
> <s_m_source_file>
/Users/andrea/Development/mcce-charges/epik_inhibitors/output/Imatinib/Imatinib-input.mol2

> <i_m_source_file_index>
1

> <r_epik_Ionization_Penalty>
  4.4240

> <r_epik_Ionization_Penalty_Charging>
  2.9045

> <r_epik_Ionization_Penalty_Neutral>
  1.5195

> <r_epik_State_Penalty>
 11.0385

> <i_epik_Tot_Q>
1

> <s_epik_Chemistry_Notes>
This compound has an imine and may undergo hydrolysis.

$$$$
4-[(4-methylpiperazin-1-yl)methyl]-~{N}-[4-methyl-3-[[4-(3-pyridyl)pyrimidin-2-yl]amino]phenyl]benzamide
                    3D
 Structure written by MMmdl.
 70 74  0  0  1  0            999 V2000
   -2.2404   -7.1062   10.2698 C   0  0  0  0  0  0
   -2.2225   -6.0497    9.3822 C   0  0  0  0  0  0
   -2.1261   -6.2718    7.9594 C   0  0  0  0  0  0
   -1.4605   -7.3756    7.4511 C   0  0  0  0  0  0
   -1.3338   -7.6417    6.1317 N   0  0  0  0  0  0
   -1.9031   -6.7563    5.2835 C   0  0  0  0  0  0
   -2.5897   -5.6235    5.6902 C   0  0  0  0  0  0
   -2.6987   -5.3839    7.0555 C   0  0  0  0  0  0
   -2.2911   -4.7552    9.7563 N   0  0  0  0  0  0
   -2.3803   -4.5515   11.0844 C   0  0  0  0  0  0
   -2.4535   -3.2106   11.5116 N   0  0  0  0  0  0
   -2.4532   -1.9825   10.8141 C   0  0  0  0  0  0
   -3.1249   -0.8719   11.3251 C   0  0  0  0  0  0
   -3.1148    0.3333   10.6229 C   0  0  0  0  0  0
   -2.4330    0.4279    9.4097 C   0  0  0  0  0  0
   -1.7613   -0.6828    8.8987 C   0  0  0  0  0  0
   -1.7714   -1.8879    9.6010 C   0  0  0  0  0  0
   -1.0683   -0.5860    7.6657 N   0  0  0  0  0  0
   -0.3483   -1.5855    7.0095 C   0  0  0  0  0  0
    0.2872   -1.1552    5.7742 C   0  0  0  0  0  0
    0.6454    0.1820    5.6035 C   0  0  0  0  0  0
    1.2550    0.5951    4.4188 C   0  0  0  0  0  0
    1.5062   -0.3291    3.4047 C   0  0  0  0  0  0
    1.1479   -1.6664    3.5754 C   0  0  0  0  0  0
    0.5384   -2.0794    4.7601 C   0  0  0  0  0  0
    2.1604    0.1160    2.1288 C   0  0  0  0  0  0
    3.2187   -0.8002    1.7081 N   0  3  0  0  0  0
    4.4328   -0.5968    2.5079 C   0  0  0  0  0  0
    5.5443   -1.5548    2.0658 C   0  0  0  0  0  0
    5.8387   -1.3892    0.6372 N   0  0  0  0  0  0
    4.6249   -1.5935   -0.1628 C   0  0  0  0  0  0
    3.5125   -0.6365    0.2792 C   0  0  0  0  0  0
    6.8981   -2.3037    0.2160 C   0  0  0  0  0  0
   -0.2094   -2.7337    7.4258 O   0  0  0  0  0  0
   -3.8632   -0.9449   12.6220 C   0  0  0  0  0  0
   -2.4066   -5.4922   12.0477 N   0  3  0  0  0  0
   -2.3347   -6.7641   11.6033 C   0  0  0  0  0  0
   -2.1849   -8.1410    9.9553 H   0  0  0  0  0  0
   -0.9921   -8.1070    8.1036 H   0  0  0  0  0  0
   -1.7894   -6.9877    4.2294 H   0  0  0  0  0  0
   -3.0278   -4.9455    4.9667 H   0  0  0  0  0  0
   -3.2322   -4.5016    7.4003 H   0  0  0  0  0  0
   -2.5279   -2.9784   12.5842 H   0  0  0  0  0  0
   -3.6349    1.2043   11.0128 H   0  0  0  0  0  0
   -2.4315    1.3721    8.8710 H   0  0  0  0  0  0
   -1.2476   -2.7542    9.2020 H   0  0  0  0  0  0
   -1.0604    0.3647    7.1124 H   0  0  0  0  0  0
    0.4548    0.9109    6.3872 H   0  0  0  0  0  0
    1.5303    1.6391    4.2946 H   0  0  0  0  0  0
    1.3397   -2.3930    2.7904 H   0  0  0  0  0  0
    0.2637   -3.1239    4.8822 H   0  0  0  0  0  0
    1.4079    0.1628    1.3278 H   0  0  0  0  0  0
    2.6051    1.1118    2.2727 H   0  0  0  0  0  0
    4.7859    0.4373    2.3819 H   0  0  0  0  0  0
    4.2081   -0.7808    3.5689 H   0  0  0  0  0  0
    6.4579   -1.3473    2.6421 H   0  0  0  0  0  0
    5.2262   -2.5926    2.2440 H   0  0  0  0  0  0
    4.8497   -1.4091   -1.2237 H   0  0  0  0  0  0
    4.2726   -2.6280   -0.0370 H   0  0  0  0  0  0
    2.6074   -0.8507   -0.3081 H   0  0  0  0  0  0
    3.8378    0.3967    0.0877 H   0  0  0  0  0  0
    7.1007   -2.1613   -0.8558 H   0  0  0  0  0  0
    6.5792   -3.3412    0.3943 H   0  0  0  0  0  0
    7.8118   -2.0968    0.7925 H   0  0  0  0  0  0
   -4.3183    0.0325   12.8404 H   0  0  0  0  0  0
   -3.1635   -1.2118   13.4277 H   0  0  0  0  0  0
   -4.6514   -1.7091   12.5527 H   0  0  0  0  0  0
   -2.3561   -7.5262   12.3750 H   0  0  0  0  0  0
    2.8592   -1.8263    1.8747 H   0  0  0  0  0  0
   -2.4820   -5.1955   13.1043 H   0  0  0  0  0  0
  1 37  2  0  0  0
  1  2  1  0  0  0
  1 38  1  0  0  0
  2  3  1  0  0  0
  2  9  2  0  0  0
  3  8  2  0  0  0
  3  4  1  0  0  0
  4  5  2  0  0  0
  4 39  1  0  0  0
  5  6  1  0  0  0
  6  7  2  0  0  0
  6 40  1  0  0  0
  7  8  1  0  0  0
  7 41  1  0  0  0
  8 42  1  0  0  0
  9 10  1  0  0  0
 10 11  1  0  0  0
 10 36  2  0  0  0
 11 12  1  0  0  0
 11 43  1  0  0  0
 12 17  2  0  0  0
 12 13  1  0  0  0
 13 14  2  0  0  0
 13 35  1  0  0  0
 14 15  1  0  0  0
 14 44  1  0  0  0
 15 16  2  0  0  0
 15 45  1  0  0  0
 16 17  1  0  0  0
 16 18  1  0  0  0
 17 46  1  0  0  0
 18 19  1  0  0  0
 18 47  1  0  0  0
 19 20  1  0  0  0
 19 34  2  0  0  0
 20 25  2  0  0  0
 20 21  1  0  0  0
 21 22  2  0  0  0
 21 48  1  0  0  0
 22 23  1  0  0  0
 22 49  1  0  0  0
 23 24  2  0  0  0
 23 26  1  0  0  0
 24 25  1  0  0  0
 24 50  1  0  0  0
 25 51  1  0  0  0
 26 27  1  0  0  0
 26 52  1  0  0  0
 26 53  1  0  0  0
 27 32  1  0  0  0
 27 28  1  0  0  0
 27 69  1  0  0  0
 28 29  1  0  0  0
 28 54  1  0  0  0
 28 55  1  0  0  0
 29 30  1  0  0  0
 29 56  1  0  0  0
 29 57  1  0  0  0
 30 31  1  0  0  0
 30 33  1  0  0  0
 31 32  1  0  0  0
 31 58  1  0  0  0
 31 59  1  0  0  0
 32 60  1  0  0  0
 32 61  1  0  0  0
 33 62  1  0  0  0
 33 63  1  0  0  0
 33 64  1  0  0  0
 35 65  1  0  0  0
 35 66  1  0  0  0
 35 67  1  0  0  0
 36 37  1  0  0  0
 36 70  1  0  0  0
 37 68  1  0  0  0
M  CHG  2  27   1  36   1
M  END
> <s_m_source_file>
/Users/andrea/Development/mcce-charges/epik_inhibitors/output/Imatinib/Imatinib-input.mol2

> <i_m_source_file_index>
1

> <r_epik_Ionization_Penalty>
  5.9265

> <r_epik_Ionization_Penalty_Charging>
  5.9207

> <r_epik_Ionization_Penalty_Neutral>
  0.0058

> <r_epik_State_Penalty>
 11.7894

> <i_epik_Tot_Q>
2

$$$$
4-[(4-methylpiperazin-1-yl)methyl]-~{N}-[4-methyl-3-[[4-(3-pyridyl)pyrimidin-2-yl]amino]phenyl]benzamide
                    3D
 Structure written by MMmdl.
 70 74  0  0  1  0            999 V2000
   -2.2404   -7.1062   10.2698 C   0  0  0  0  0  0
   -2.2225   -6.0497    9.3822 C   0  0  0  0  0  0
   -2.1261   -6.2718    7.9594 C   0  0  0  0  0  0
   -1.4605   -7.3756    7.4511 C   0  0  0  0  0  0
   -1.3338   -7.6417    6.1317 N   0  0  0  0  0  0
   -1.9031   -6.7563    5.2835 C   0  0  0  0  0  0
   -2.5897   -5.6235    5.6902 C   0  0  0  0  0  0
   -2.6987   -5.3839    7.0555 C   0  0  0  0  0  0
   -2.2911   -4.7552    9.7563 N   0  0  0  0  0  0
   -2.3803   -4.5515   11.0844 C   0  0  0  0  0  0
   -2.4535   -3.2106   11.5116 N   0  0  0  0  0  0
   -2.4532   -1.9825   10.8141 C   0  0  0  0  0  0
   -3.1249   -0.8719   11.3251 C   0  0  0  0  0  0
   -3.1148    0.3333   10.6229 C   0  0  0  0  0  0
   -2.4330    0.4279    9.4097 C   0  0  0  0  0  0
   -1.7613   -0.6828    8.8987 C   0  0  0  0  0  0
   -1.7714   -1.8879    9.6010 C   0  0  0  0  0  0
   -1.0683   -0.5860    7.6657 N   0  0  0  0  0  0
   -0.3483   -1.5855    7.0095 C   0  0  0  0  0  0
    0.2872   -1.1552    5.7742 C   0  0  0  0  0  0
    0.6454    0.1820    5.6035 C   0  0  0  0  0  0
    1.2550    0.5951    4.4188 C   0  0  0  0  0  0
    1.5062   -0.3291    3.4047 C   0  0  0  0  0  0
    1.1479   -1.6664    3.5754 C   0  0  0  0  0  0
    0.5384   -2.0794    4.7601 C   0  0  0  0  0  0
    2.1604    0.1160    2.1288 C   0  0  0  0  0  0
    3.2187   -0.8002    1.7081 N   0  0  0  0  0  0
    4.4328   -0.5968    2.5079 C   0  0  0  0  0  0
    5.5443   -1.5548    2.0658 C   0  0  0  0  0  0
    5.8387   -1.3892    0.6372 N   0  3  0  0  0  0
    4.6249   -1.5935   -0.1628 C   0  0  0  0  0  0
    3.5125   -0.6365    0.2792 C   0  0  0  0  0  0
    6.8981   -2.3037    0.2160 C   0  0  0  0  0  0
   -0.2094   -2.7337    7.4258 O   0  0  0  0  0  0
   -3.8632   -0.9449   12.6220 C   0  0  0  0  0  0
   -2.4066   -5.4922   12.0477 N   0  3  0  0  0  0
   -2.3347   -6.7641   11.6033 C   0  0  0  0  0  0
   -2.1849   -8.1410    9.9553 H   0  0  0  0  0  0
   -0.9921   -8.1070    8.1036 H   0  0  0  0  0  0
   -1.7894   -6.9877    4.2294 H   0  0  0  0  0  0
   -3.0278   -4.9455    4.9667 H   0  0  0  0  0  0
   -3.2322   -4.5016    7.4003 H   0  0  0  0  0  0
   -2.5279   -2.9784   12.5842 H   0  0  0  0  0  0
   -3.6349    1.2043   11.0128 H   0  0  0  0  0  0
   -2.4315    1.3721    8.8710 H   0  0  0  0  0  0
   -1.2476   -2.7542    9.2020 H   0  0  0  0  0  0
   -1.0604    0.3647    7.1124 H   0  0  0  0  0  0
    0.4548    0.9109    6.3872 H   0  0  0  0  0  0
    1.5303    1.6391    4.2946 H   0  0  0  0  0  0
    1.3397   -2.3930    2.7904 H   0  0  0  0  0  0
    0.2637   -3.1239    4.8822 H   0  0  0  0  0  0
    1.4079    0.1628    1.3278 H   0  0  0  0  0  0
    2.6051    1.1118    2.2727 H   0  0  0  0  0  0
    4.7859    0.4373    2.3819 H   0  0  0  0  0  0
    4.2081   -0.7808    3.5689 H   0  0  0  0  0  0
    6.4579   -1.3473    2.6421 H   0  0  0  0  0  0
    5.2262   -2.5926    2.2440 H   0  0  0  0  0  0
    4.8497   -1.4091   -1.2237 H   0  0  0  0  0  0
    4.2726   -2.6280   -0.0370 H   0  0  0  0  0  0
    2.6074   -0.8507   -0.3081 H   0  0  0  0  0  0
    3.8378    0.3967    0.0877 H   0  0  0  0  0  0
    7.1007   -2.1613   -0.8558 H   0  0  0  0  0  0
    6.5792   -3.3412    0.3943 H   0  0  0  0  0  0
    7.8118   -2.0968    0.7925 H   0  0  0  0  0  0
   -4.3183    0.0325   12.8404 H   0  0  0  0  0  0
   -3.1635   -1.2118   13.4277 H   0  0  0  0  0  0
   -4.6514   -1.7091   12.5527 H   0  0  0  0  0  0
   -2.3561   -7.5262   12.3750 H   0  0  0  0  0  0
    6.1974   -0.3626    0.4714 H   0  0  0  0  0  0
   -2.4820   -5.1955   13.1043 H   0  0  0  0  0  0
  1 37  2  0  0  0
  1  2  1  0  0  0
  1 38  1  0  0  0
  2  3  1  0  0  0
  2  9  2  0  0  0
  3  8  2  0  0  0
  3  4  1  0  0  0
  4  5  2  0  0  0
  4 39  1  0  0  0
  5  6  1  0  0  0
  6  7  2  0  0  0
  6 40  1  0  0  0
  7  8  1  0  0  0
  7 41  1  0  0  0
  8 42  1  0  0  0
  9 10  1  0  0  0
 10 11  1  0  0  0
 10 36  2  0  0  0
 11 12  1  0  0  0
 11 43  1  0  0  0
 12 17  2  0  0  0
 12 13  1  0  0  0
 13 14  2  0  0  0
 13 35  1  0  0  0
 14 15  1  0  0  0
 14 44  1  0  0  0
 15 16  2  0  0  0
 15 45  1  0  0  0
 16 17  1  0  0  0
 16 18  1  0  0  0
 17 46  1  0  0  0
 18 19  1  0  0  0
 18 47  1  0  0  0
 19 20  1  0  0  0
 19 34  2  0  0  0
 20 25  2  0  0  0
 20 21  1  0  0  0
 21 22  2  0  0  0
 21 48  1  0  0  0
 22 23  1  0  0  0
 22 49  1  0  0  0
 23 24  2  0  0  0
 23 26  1  0  0  0
 24 25  1  0  0  0
 24 50  1  0  0  0
 25 51  1  0  0  0
 26 27  1  0  0  0
 26 52  1  0  0  0
 26 53  1  0  0  0
 27 32  1  0  0  0
 27 28  1  0  0  0
 28 29  1  0  0  0
 28 54  1  0  0  0
 28 55  1  0  0  0
 29 30  1  0  0  0
 29 56  1  0  0  0
 29 57  1  0  0  0
 30 31  1  0  0  0
 30 33  1  0  0  0
 30 69  1  0  0  0
 31 32  1  0  0  0
 31 58  1  0  0  0
 31 59  1  0  0  0
 32 60  1  0  0  0
 32 61  1  0  0  0
 33 62  1  0  0  0
 33 63  1  0  0  0
 33 64  1  0  0  0
 35 65  1  0  0  0
 35 66  1  0  0  0
 35 67  1  0  0  0
 36 37  1  0  0  0
 36 70  1  0  0  0
 37 68  1  0  0  0
M  CHG  2  30   1  36   1
M  END
> <s_m_source_file>
/Users/andrea/Development/mcce-charges/epik_inhibitors/output/Imatinib/Imatinib-input.mol2

> <i_m_source_file_index>
1

> <r_epik_Ionization_Penalty>
  5.9673

> <r_epik_Ionization_Penalty_Charging>
  5.9390

> <r_epik_Ionization_Penalty_Neutral>
  0.0284

> <r_epik_State_Penalty>
 12.1608

> <i_epik_Tot_Q>
2

$$$$
4-[(4-methylpiperazin-1-yl)methyl]-~{N}-[4-methyl-3-[[4-(3-pyridyl)pyrimidin-2-yl]amino]phenyl]benzamide
                    3D
 Structure written by MMmdl.
 70 74  0  0  1  0            999 V2000
   -2.2404   -7.1062   10.2698 C   0  0  0  0  0  0
   -2.2225   -6.0497    9.3822 C   0  0  0  0  0  0
   -2.1261   -6.2718    7.9594 C   0  0  0  0  0  0
   -1.4605   -7.3756    7.4511 C   0  0  0  0  0  0
   -1.3338   -7.6417    6.1317 N   0  0  0  0  0  0
   -1.9031   -6.7563    5.2835 C   0  0  0  0  0  0
   -2.5897   -5.6235    5.6902 C   0  0  0  0  0  0
   -2.6987   -5.3839    7.0555 C   0  0  0  0  0  0
   -2.2911   -4.7552    9.7563 N   0  3  0  0  0  0
   -2.3803   -4.5515   11.0844 C   0  0  0  0  0  0
   -2.4535   -3.2106   11.5116 N   0  0  0  0  0  0
   -2.4532   -1.9825   10.8141 C   0  0  0  0  0  0
   -3.1249   -0.8719   11.3251 C   0  0  0  0  0  0
   -3.1148    0.3333   10.6229 C   0  0  0  0  0  0
   -2.4330    0.4279    9.4097 C   0  0  0  0  0  0
   -1.7613   -0.6828    8.8987 C   0  0  0  0  0  0
   -1.7714   -1.8879    9.6010 C   0  0  0  0  0  0
   -1.0683   -0.5860    7.6657 N   0  0  0  0  0  0
   -0.3483   -1.5855    7.0095 C   0  0  0  0  0  0
    0.2872   -1.1552    5.7742 C   0  0  0  0  0  0
    0.6454    0.1820    5.6035 C   0  0  0  0  0  0
    1.2550    0.5951    4.4188 C   0  0  0  0  0  0
    1.5062   -0.3291    3.4047 C   0  0  0  0  0  0
    1.1479   -1.6664    3.5754 C   0  0  0  0  0  0
    0.5384   -2.0794    4.7601 C   0  0  0  0  0  0
    2.1604    0.1160    2.1288 C   0  0  0  0  0  0
    3.2187   -0.8002    1.7081 N   0  3  0  0  0  0
    4.4328   -0.5968    2.5079 C   0  0  0  0  0  0
    5.5443   -1.5548    2.0658 C   0  0  0  0  0  0
    5.8387   -1.3892    0.6372 N   0  0  0  0  0  0
    4.6249   -1.5935   -0.1628 C   0  0  0  0  0  0
    3.5125   -0.6365    0.2792 C   0  0  0  0  0  0
    6.8981   -2.3037    0.2160 C   0  0  0  0  0  0
   -0.2094   -2.7337    7.4258 O   0  0  0  0  0  0
   -3.8632   -0.9449   12.6220 C   0  0  0  0  0  0
   -2.4066   -5.4922   12.0477 N   0  0  0  0  0  0
   -2.3347   -6.7641   11.6033 C   0  0  0  0  0  0
   -2.1849   -8.1410    9.9553 H   0  0  0  0  0  0
   -0.9921   -8.1070    8.1036 H   0  0  0  0  0  0
   -1.7894   -6.9877    4.2294 H   0  0  0  0  0  0
   -3.0278   -4.9455    4.9667 H   0  0  0  0  0  0
   -3.2322   -4.5016    7.4003 H   0  0  0  0  0  0
   -2.5279   -2.9784   12.5842 H   0  0  0  0  0  0
   -3.6349    1.2043   11.0128 H   0  0  0  0  0  0
   -2.4315    1.3721    8.8710 H   0  0  0  0  0  0
   -1.2476   -2.7542    9.2020 H   0  0  0  0  0  0
   -1.0604    0.3647    7.1124 H   0  0  0  0  0  0
    0.4548    0.9109    6.3872 H   0  0  0  0  0  0
    1.5303    1.6391    4.2946 H   0  0  0  0  0  0
    1.3397   -2.3930    2.7904 H   0  0  0  0  0  0
    0.2637   -3.1239    4.8822 H   0  0  0  0  0  0
    1.4079    0.1628    1.3278 H   0  0  0  0  0  0
    2.6051    1.1118    2.2727 H   0  0  0  0  0  0
    4.7859    0.4373    2.3819 H   0  0  0  0  0  0
    4.2081   -0.7808    3.5689 H   0  0  0  0  0  0
    6.4579   -1.3473    2.6421 H   0  0  0  0  0  0
    5.2262   -2.5926    2.2440 H   0  0  0  0  0  0
    4.8497   -1.4091   -1.2237 H   0  0  0  0  0  0
    4.2726   -2.6280   -0.0370 H   0  0  0  0  0  0
    2.6074   -0.8507   -0.3081 H   0  0  0  0  0  0
    3.8378    0.3967    0.0877 H   0  0  0  0  0  0
    7.1007   -2.1613   -0.8558 H   0  0  0  0  0  0
    6.5792   -3.3412    0.3943 H   0  0  0  0  0  0
    7.8118   -2.0968    0.7925 H   0  0  0  0  0  0
   -4.3183    0.0325   12.8404 H   0  0  0  0  0  0
   -3.1635   -1.2118   13.4277 H   0  0  0  0  0  0
   -4.6514   -1.7091   12.5527 H   0  0  0  0  0  0
   -2.3561   -7.5262   12.3750 H   0  0  0  0  0  0
    2.8592   -1.8263    1.8747 H   0  0  0  0  0  0
   -2.2720   -3.9610    8.9954 H   0  0  0  0  0  0
  1 37  2  0  0  0
  1  2  1  0  0  0
  1 38  1  0  0  0
  2  3  1  0  0  0
  2  9  2  0  0  0
  3  8  2  0  0  0
  3  4  1  0  0  0
  4  5  2  0  0  0
  4 39  1  0  0  0
  5  6  1  0  0  0
  6  7  2  0  0  0
  6 40  1  0  0  0
  7  8  1  0  0  0
  7 41  1  0  0  0
  8 42  1  0  0  0
  9 10  1  0  0  0
  9 70  1  0  0  0
 10 11  1  0  0  0
 10 36  2  0  0  0
 11 12  1  0  0  0
 11 43  1  0  0  0
 12 17  2  0  0  0
 12 13  1  0  0  0
 13 14  2  0  0  0
 13 35  1  0  0  0
 14 15  1  0  0  0
 14 44  1  0  0  0
 15 16  2  0  0  0
 15 45  1  0  0  0
 16 17  1  0  0  0
 16 18  1  0  0  0
 17 46  1  0  0  0
 18 19  1  0  0  0
 18 47  1  0  0  0
 19 20  1  0  0  0
 19 34  2  0  0  0
 20 25  2  0  0  0
 20 21  1  0  0  0
 21 22  2  0  0  0
 21 48  1  0  0  0
 22 23  1  0  0  0
 22 49  1  0  0  0
 23 24  2  0  0  0
 23 26  1  0  0  0
 24 25  1  0  0  0
 24 50  1  0  0  0
 25 51  1  0  0  0
 26 27  1  0  0  0
 26 52  1  0  0  0
 26 53  1  0  0  0
 27 32  1  0  0  0
 27 28  1  0  0  0
 27 69  1  0  0  0
 28 29  1  0  0  0
 28 54  1  0  0  0
 28 55  1  0  0  0
 29 30  1  0  0  0
 29 56  1  0  0  0
 29 57  1  0  0  0
 30 31  1  0  0  0
 30 33  1  0  0  0
 31 32  1  0  0  0
 31 58  1  0  0  0
 31 59  1  0  0  0
 32 60  1  0  0  0
 32 61  1  0  0  0
 33 62  1  0  0  0
 33 63  1  0  0  0
 33 64  1  0  0  0
 35 65  1  0  0  0
 35 66  1  0  0  0
 35 67  1  0  0  0
 36 37  1  0  0  0
 37 68  1  0  0  0
M  CHG  2   9   1  27   1
M  END
> <s_m_source_file>
/Users/andrea/Development/mcce-charges/epik_inhibitors/output/Imatinib/Imatinib-input.mol2

> <i_m_source_file_index>
1

> <r_epik_Ionization_Penalty>
  6.3802

> <r_epik_Ionization_Penalty_Charging>
  6.3744

> <r_epik_Ionization_Penalty_Neutral>
  0.0058

> <r_epik_State_Penalty>
 12.3717

> <i_epik_Tot_Q>
2

$$$$
4-[(4-methylpiperazin-1-yl)methyl]-~{N}-[4-methyl-3-[[4-(3-pyridyl)pyrimidin-2-yl]amino]phenyl]benzamide
                    3D
 Structure written by MMmdl.
 68 72  0  0  1  0            999 V2000
   -2.2404   -7.1062   10.2698 C   0  0  0  0  0  0
   -2.2221   -6.0497    9.3822 C   0  0  0  0  0  0
   -2.1253   -6.2718    7.9595 C   0  0  0  0  0  0
   -1.4596   -7.3756    7.4513 C   0  0  0  0  0  0
   -1.3325   -7.6417    6.1320 N   0  0  0  0  0  0
   -1.9014   -6.7562    5.2836 C   0  0  0  0  0  0
   -2.5880   -5.6234    5.6901 C   0  0  0  0  0  0
   -2.6975   -5.3838    7.0554 C   0  0  0  0  0  0
   -2.2911   -4.7552    9.7563 N   0  0  0  0  0  0
   -2.3803   -4.5515   11.0844 C   0  0  0  0  0  0
   -2.4535   -3.2106   11.5116 N   0  0  0  0  0  0
   -2.4532   -1.9825   10.8141 C   0  0  0  0  0  0
   -3.1249   -0.8719   11.3251 C   0  0  0  0  0  0
   -3.1148    0.3333   10.6229 C   0  0  0  0  0  0
   -2.4330    0.4279    9.4097 C   0  0  0  0  0  0
   -1.7613   -0.6828    8.8987 C   0  0  0  0  0  0
   -1.7714   -1.8879    9.6010 C   0  0  0  0  0  0
   -1.0683   -0.5860    7.6657 N   0  0  0  0  0  0
   -0.3483   -1.5855    7.0095 C   0  0  0  0  0  0
    0.2872   -1.1552    5.7742 C   0  0  0  0  0  0
    0.6454    0.1820    5.6035 C   0  0  0  0  0  0
    1.2550    0.5951    4.4188 C   0  0  0  0  0  0
    1.5062   -0.3291    3.4047 C   0  0  0  0  0  0
    1.1479   -1.6664    3.5754 C   0  0  0  0  0  0
    0.5384   -2.0794    4.7601 C   0  0  0  0  0  0
    2.1604    0.1160    2.1288 C   0  0  0  0  0  0
    3.2187   -0.8002    1.7081 N   0  0  0  0  0  0
    4.4328   -0.5968    2.5079 C   0  0  0  0  0  0
    5.5443   -1.5548    2.0658 C   0  0  0  0  0  0
    5.8387   -1.3892    0.6372 N   0  0  0  0  0  0
    4.6249   -1.5935   -0.1628 C   0  0  0  0  0  0
    3.5125   -0.6365    0.2792 C   0  0  0  0  0  0
    6.8981   -2.3037    0.2160 C   0  0  0  0  0  0
   -0.2094   -2.7337    7.4258 O   0  0  0  0  0  0
   -3.8632   -0.9449   12.6220 C   0  0  0  0  0  0
   -2.4071   -5.4922   12.0477 N   0  0  0  0  0  0
   -2.3351   -6.7641   11.6033 C   0  0  0  0  0  0
   -2.1903   -8.0686   10.0028 H   0  0  0  0  0  0
   -0.9915   -8.1071    8.1040 H   0  0  0  0  0  0
   -1.7874   -6.9876    4.2295 H   0  0  0  0  0  0
   -3.0258   -4.9453    4.9665 H   0  0  0  0  0  0
   -3.2310   -4.5014    7.4000 H   0  0  0  0  0  0
   -3.6349    1.2043   11.0128 H   0  0  0  0  0  0
   -2.4315    1.3721    8.8710 H   0  0  0  0  0  0
   -1.2476   -2.7542    9.2020 H   0  0  0  0  0  0
   -1.0604    0.3647    7.1124 H   0  0  0  0  0  0
    0.4548    0.9109    6.3872 H   0  0  0  0  0  0
    1.5303    1.6391    4.2946 H   0  0  0  0  0  0
    1.3397   -2.3930    2.7904 H   0  0  0  0  0  0
    0.2637   -3.1239    4.8822 H   0  0  0  0  0  0
    1.4079    0.1628    1.3278 H   0  0  0  0  0  0
    2.6051    1.1118    2.2727 H   0  0  0  0  0  0
    4.7859    0.4373    2.3819 H   0  0  0  0  0  0
    4.2081   -0.7808    3.5689 H   0  0  0  0  0  0
    6.4579   -1.3473    2.6421 H   0  0  0  0  0  0
    5.2262   -2.5926    2.2440 H   0  0  0  0  0  0
    4.8497   -1.4091   -1.2237 H   0  0  0  0  0  0
    4.2726   -2.6280   -0.0370 H   0  0  0  0  0  0
    2.6074   -0.8507   -0.3081 H   0  0  0  0  0  0
    3.8378    0.3967    0.0877 H   0  0  0  0  0  0
    7.1007   -2.1613   -0.8558 H   0  0  0  0  0  0
    6.5792   -3.3412    0.3943 H   0  0  0  0  0  0
    7.8118   -2.0968    0.7925 H   0  0  0  0  0  0
   -4.3183    0.0325   12.8404 H   0  0  0  0  0  0
   -3.1635   -1.2118   13.4277 H   0  0  0  0  0  0
   -4.6514   -1.7091   12.5527 H   0  0  0  0  0  0
   -2.3537   -7.4786   12.3027 H   0  0  0  0  0  0
   -2.4809   -5.2899   13.1264 H   0  0  0  0  0  0
  1  2  1  0  0  0
  1 38  1  0  0  0
  1 37  2  0  0  0
  2  9  2  0  0  0
  2  3  1  0  0  0
  3  8  2  0  0  0
  3  4  1  0  0  0
  4  5  2  0  0  0
  4 39  1  0  0  0
  5  6  1  0  0  0
  6  7  2  0  0  0
  6 40  1  0  0  0
  7  8  1  0  0  0
  7 41  1  0  0  0
  8 42  1  0  0  0
  9 10  1  0  0  0
 10 11  2  0  0  0
 10 36  1  0  0  0
 11 12  1  0  0  0
 12 17  2  0  0  0
 12 13  1  0  0  0
 13 14  2  0  0  0
 13 35  1  0  0  0
 14 15  1  0  0  0
 14 43  1  0  0  0
 15 16  2  0  0  0
 15 44  1  0  0  0
 16 17  1  0  0  0
 16 18  1  0  0  0
 17 45  1  0  0  0
 18 19  1  0  0  0
 18 46  1  0  0  0
 19 20  1  0  0  0
 19 34  2  0  0  0
 20 25  2  0  0  0
 20 21  1  0  0  0
 21 22  2  0  0  0
 21 47  1  0  0  0
 22 23  1  0  0  0
 22 48  1  0  0  0
 23 24  2  0  0  0
 23 26  1  0  0  0
 24 25  1  0  0  0
 24 49  1  0  0  0
 25 50  1  0  0  0
 26 27  1  0  0  0
 26 51  1  0  0  0
 26 52  1  0  0  0
 27 32  1  0  0  0
 27 28  1  0  0  0
 28 29  1  0  0  0
 28 53  1  0  0  0
 28 54  1  0  0  0
 29 30  1  0  0  0
 29 55  1  0  0  0
 29 56  1  0  0  0
 30 31  1  0  0  0
 30 33  1  0  0  0
 31 32  1  0  0  0
 31 57  1  0  0  0
 31 58  1  0  0  0
 32 59  1  0  0  0
 32 60  1  0  0  0
 33 61  1  0  0  0
 33 62  1  0  0  0
 33 63  1  0  0  0
 35 64  1  0  0  0
 35 65  1  0  0  0
 35 66  1  0  0  0
 36 37  1  0  0  0
 36 68  1  0  0  0
 37 67  1  0  0  0
M  END
> <s_m_source_file>
/Users/andrea/Development/mcce-charges/epik_inhibitors/output/Imatinib/Imatinib-input.mol2

> <i_m_source_file_index>
1

> <r_lp_tautomer_probability>
4.69999911640017e-08

> <r_epik_Ionization_Penalty>
 11.4233

> <r_epik_Ionization_Penalty_Charging>
  8.3554

> <r_epik_Ionization_Penalty_Neutral>
  3.0679

> <r_epik_State_Penalty>
 12.4472

> <i_epik_Tot_Q>
0

$$$$
4-[(4-methylpiperazin-1-yl)methyl]-~{N}-[4-methyl-3-[[4-(3-pyridyl)pyrimidin-2-yl]amino]phenyl]benzamide
                    3D
 Structure written by MMmdl.
 68 72  0  0  1  0            999 V2000
   -2.2404   -7.1062   10.2698 C   0  0  0  0  0  0
   -2.2221   -6.0497    9.3822 C   0  0  0  0  0  0
   -2.1253   -6.2718    7.9595 C   0  0  0  0  0  0
   -1.4596   -7.3756    7.4513 C   0  0  0  0  0  0
   -1.3325   -7.6417    6.1320 N   0  0  0  0  0  0
   -1.9014   -6.7562    5.2836 C   0  0  0  0  0  0
   -2.5880   -5.6234    5.6901 C   0  0  0  0  0  0
   -2.6975   -5.3838    7.0554 C   0  0  0  0  0  0
   -2.2911   -4.7552    9.7563 N   0  0  0  0  0  0
   -2.3803   -4.5515   11.0844 C   0  0  0  0  0  0
   -2.4535   -3.2106   11.5116 N   0  0  0  0  0  0
   -2.5532   -2.6173   12.7894 C   0  0  0  0  0  0
   -2.0110   -1.3556   13.0342 C   0  0  0  0  0  0
   -2.1181   -0.7845   14.3023 C   0  0  0  0  0  0
   -2.7674   -1.4751   15.3256 C   0  0  0  0  0  0
   -3.3096   -2.7369   15.0808 C   0  0  0  0  0  0
   -3.2025   -3.3078   13.8126 C   0  0  0  0  0  0
   -3.9696   -3.4382   16.1212 N   0  0  0  0  0  0
   -4.5662   -4.6984   16.0575 C   0  0  0  0  0  0
   -5.2019   -5.1249   17.2939 C   0  0  0  0  0  0
   -5.6850   -4.1746   18.1934 C   0  0  0  0  0  0
   -6.2948   -4.5834   19.3795 C   0  0  0  0  0  0
   -6.4214   -5.9426   19.6661 C   0  0  0  0  0  0
   -5.9382   -6.8930   18.7666 C   0  0  0  0  0  0
   -5.3284   -6.4842   17.5806 C   0  0  0  0  0  0
   -7.0758   -6.3825   20.9437 C   0  0  0  0  0  0
   -8.0246   -7.4727   20.7252 N   0  0  0  0  0  0
   -9.2775   -6.9664   20.1515 C   0  0  0  0  0  0
  -10.2743   -8.1080   19.9246 C   0  0  0  0  0  0
  -10.5385   -8.8270   21.1769 N   0  0  0  0  0  0
   -9.2859   -9.3342   21.7503 C   0  0  0  0  0  0
   -8.2880   -8.1933   21.9766 C   0  0  0  0  0  0
  -11.4885   -9.9162   20.9598 C   0  0  0  0  0  0
   -4.6040   -5.4029   15.0509 O   0  0  0  0  0  0
   -1.3103   -0.5936   11.9568 C   0  0  0  0  0  0
   -2.4071   -5.4922   12.0477 N   0  0  0  0  0  0
   -2.3351   -6.7641   11.6033 C   0  0  0  0  0  0
   -2.1903   -8.0686   10.0028 H   0  0  0  0  0  0
   -0.9915   -8.1071    8.1040 H   0  0  0  0  0  0
   -1.7874   -6.9876    4.2295 H   0  0  0  0  0  0
   -3.0258   -4.9453    4.9665 H   0  0  0  0  0  0
   -3.2310   -4.5014    7.4000 H   0  0  0  0  0  0
   -1.6992    0.1980   14.5029 H   0  0  0  0  0  0
   -2.8452   -1.0205   16.3100 H   0  0  0  0  0  0
   -3.6253   -4.2922   13.6220 H   0  0  0  0  0  0
   -4.0539   -2.9874   17.1210 H   0  0  0  0  0  0
   -5.5921   -3.1127   17.9803 H   0  0  0  0  0  0
   -6.6679   -3.8358   20.0745 H   0  0  0  0  0  0
   -6.0324   -7.9540   18.9821 H   0  0  0  0  0  0
   -4.9558   -7.2335   16.8870 H   0  0  0  0  0  0
   -6.3068   -6.7323   21.6481 H   0  0  0  0  0  0
   -7.6211   -5.5360   21.3867 H   0  0  0  0  0  0
   -9.7269   -6.2355   20.8398 H   0  0  0  0  0  0
   -9.0692   -6.4812   19.1864 H   0  0  0  0  0  0
  -11.2217   -7.6976   19.5452 H   0  0  0  0  0  0
   -9.8610   -8.8153   19.1905 H   0  0  0  0  0  0
   -9.4942   -9.8190   22.7154 H   0  0  0  0  0  0
   -8.8372  -10.0656   21.0619 H   0  0  0  0  0  0
   -7.3481   -8.6163   22.3609 H   0  0  0  0  0  0
   -8.7077   -7.4982   22.7187 H   0  0  0  0  0  0
  -11.6703  -10.4391   21.9103 H   0  0  0  0  0  0
  -11.0744  -10.6231   20.2258 H   0  0  0  0  0  0
  -12.4359   -9.5062   20.5798 H   0  0  0  0  0  0
   -0.9612    0.3698   12.3567 H   0  0  0  0  0  0
   -2.0053   -0.4144   11.1231 H   0  0  0  0  0  0
   -0.4487   -1.1753   11.5973 H   0  0  0  0  0  0
   -2.3537   -7.4786   12.3027 H   0  0  0  0  0  0
   -2.4809   -5.2899   13.1264 H   0  0  0  0  0  0
  1  2  1  0  0  0
  1 38  1  0  0  0
  1 37  2  0  0  0
  2  9  2  0  0  0
  2  3  1  0  0  0
  3  8  2  0  0  0
  3  4  1  0  0  0
  4  5  2  0  0  0
  4 39  1  0  0  0
  5  6  1  0  0  0
  6  7  2  0  0  0
  6 40  1  0  0  0
  7  8  1  0  0  0
  7 41  1  0  0  0
  8 42  1  0  0  0
  9 10  1  0  0  0
 10 11  2  0  0  0
 10 36  1  0  0  0
 11 12  1  0  0  0
 12 17  2  0  0  0
 12 13  1  0  0  0
 13 14  2  0  0  0
 13 35  1  0  0  0
 14 15  1  0  0  0
 14 43  1  0  0  0
 15 16  2  0  0  0
 15 44  1  0  0  0
 16 17  1  0  0  0
 16 18  1  0  0  0
 17 45  1  0  0  0
 18 19  1  0  0  0
 18 46  1  0  0  0
 19 20  1  0  0  0
 19 34  2  0  0  0
 20 25  2  0  0  0
 20 21  1  0  0  0
 21 22  2  0  0  0
 21 47  1  0  0  0
 22 23  1  0  0  0
 22 48  1  0  0  0
 23 24  2  0  0  0
 23 26  1  0  0  0
 24 25  1  0  0  0
 24 49  1  0  0  0
 25 50  1  0  0  0
 26 27  1  0  0  0
 26 51  1  0  0  0
 26 52  1  0  0  0
 27 32  1  0  0  0
 27 28  1  0  0  0
 28 29  1  0  0  0
 28 53  1  0  0  0
 28 54  1  0  0  0
 29 30  1  0  0  0
 29 55  1  0  0  0
 29 56  1  0  0  0
 30 31  1  0  0  0
 30 33  1  0  0  0
 31 32  1  0  0  0
 31 57  1  0  0  0
 31 58  1  0  0  0
 32 59  1  0  0  0
 32 60  1  0  0  0
 33 61  1  0  0  0
 33 62  1  0  0  0
 33 63  1  0  0  0
 35 64  1  0  0  0
 35 65  1  0  0  0
 35 66  1  0  0  0
 36 37  1  0  0  0
 36 68  1  0  0  0
 37 67  1  0  0  0
M  END
> <s_m_source_file>
/Users/andrea/Development/mcce-charges/epik_inhibitors/output/Imatinib/Imatinib-input.mol2

> <i_m_source_file_index>
1

> <r_lp_tautomer_probability>
4.69999911640017e-08

> <r_epik_Ionization_Penalty>
 11.4233

> <r_epik_Ionization_Penalty_Charging>
  8.3554

> <r_epik_Ionization_Penalty_Neutral>
  3.0679

> <r_epik_State_Penalty>
 12.4472

> <i_epik_Tot_Q>
0

$$$$
4-[(4-methylpiperazin-1-yl)methyl]-~{N}-[4-methyl-3-[[4-(3-pyridyl)pyrimidin-2-yl]amino]phenyl]benzamide
                    3D
 Structure written by MMmdl.
 70 74  0  0  1  0            999 V2000
   -2.2404   -7.1062   10.2698 C   0  0  0  0  0  0
   -2.2225   -6.0497    9.3822 C   0  0  0  0  0  0
   -2.1261   -6.2718    7.9594 C   0  0  0  0  0  0
   -1.4605   -7.3756    7.4511 C   0  0  0  0  0  0
   -1.3338   -7.6417    6.1317 N   0  0  0  0  0  0
   -1.9031   -6.7563    5.2835 C   0  0  0  0  0  0
   -2.5897   -5.6235    5.6902 C   0  0  0  0  0  0
   -2.6987   -5.3839    7.0555 C   0  0  0  0  0  0
   -2.2911   -4.7552    9.7563 N   0  3  0  0  0  0
   -2.3803   -4.5515   11.0844 C   0  0  0  0  0  0
   -2.4535   -3.2106   11.5116 N   0  0  0  0  0  0
   -2.4532   -1.9825   10.8141 C   0  0  0  0  0  0
   -3.1249   -0.8719   11.3251 C   0  0  0  0  0  0
   -3.1148    0.3333   10.6229 C   0  0  0  0  0  0
   -2.4330    0.4279    9.4097 C   0  0  0  0  0  0
   -1.7613   -0.6828    8.8987 C   0  0  0  0  0  0
   -1.7714   -1.8879    9.6010 C   0  0  0  0  0  0
   -1.0683   -0.5860    7.6657 N   0  0  0  0  0  0
   -0.3483   -1.5855    7.0095 C   0  0  0  0  0  0
    0.2872   -1.1552    5.7742 C   0  0  0  0  0  0
    0.6454    0.1820    5.6035 C   0  0  0  0  0  0
    1.2550    0.5951    4.4188 C   0  0  0  0  0  0
    1.5062   -0.3291    3.4047 C   0  0  0  0  0  0
    1.1479   -1.6664    3.5754 C   0  0  0  0  0  0
    0.5384   -2.0794    4.7601 C   0  0  0  0  0  0
    2.1604    0.1160    2.1288 C   0  0  0  0  0  0
    3.2187   -0.8002    1.7081 N   0  0  0  0  0  0
    4.4328   -0.5968    2.5079 C   0  0  0  0  0  0
    5.5443   -1.5548    2.0658 C   0  0  0  0  0  0
    5.8387   -1.3892    0.6372 N   0  3  0  0  0  0
    4.6249   -1.5935   -0.1628 C   0  0  0  0  0  0
    3.5125   -0.6365    0.2792 C   0  0  0  0  0  0
    6.8981   -2.3037    0.2160 C   0  0  0  0  0  0
   -0.2094   -2.7337    7.4258 O   0  0  0  0  0  0
   -3.8632   -0.9449   12.6220 C   0  0  0  0  0  0
   -2.4066   -5.4922   12.0477 N   0  0  0  0  0  0
   -2.3347   -6.7641   11.6033 C   0  0  0  0  0  0
   -2.1849   -8.1410    9.9553 H   0  0  0  0  0  0
   -0.9921   -8.1070    8.1036 H   0  0  0  0  0  0
   -1.7894   -6.9877    4.2294 H   0  0  0  0  0  0
   -3.0278   -4.9455    4.9667 H   0  0  0  0  0  0
   -3.2322   -4.5016    7.4003 H   0  0  0  0  0  0
   -2.5279   -2.9784   12.5842 H   0  0  0  0  0  0
   -3.6349    1.2043   11.0128 H   0  0  0  0  0  0
   -2.4315    1.3721    8.8710 H   0  0  0  0  0  0
   -1.2476   -2.7542    9.2020 H   0  0  0  0  0  0
   -1.0604    0.3647    7.1124 H   0  0  0  0  0  0
    0.4548    0.9109    6.3872 H   0  0  0  0  0  0
    1.5303    1.6391    4.2946 H   0  0  0  0  0  0
    1.3397   -2.3930    2.7904 H   0  0  0  0  0  0
    0.2637   -3.1239    4.8822 H   0  0  0  0  0  0
    1.4079    0.1628    1.3278 H   0  0  0  0  0  0
    2.6051    1.1118    2.2727 H   0  0  0  0  0  0
    4.7859    0.4373    2.3819 H   0  0  0  0  0  0
    4.2081   -0.7808    3.5689 H   0  0  0  0  0  0
    6.4579   -1.3473    2.6421 H   0  0  0  0  0  0
    5.2262   -2.5926    2.2440 H   0  0  0  0  0  0
    4.8497   -1.4091   -1.2237 H   0  0  0  0  0  0
    4.2726   -2.6280   -0.0370 H   0  0  0  0  0  0
    2.6074   -0.8507   -0.3081 H   0  0  0  0  0  0
    3.8378    0.3967    0.0877 H   0  0  0  0  0  0
    7.1007   -2.1613   -0.8558 H   0  0  0  0  0  0
    6.5792   -3.3412    0.3943 H   0  0  0  0  0  0
    7.8118   -2.0968    0.7925 H   0  0  0  0  0  0
   -4.3183    0.0325   12.8404 H   0  0  0  0  0  0
   -3.1635   -1.2118   13.4277 H   0  0  0  0  0  0
   -4.6514   -1.7091   12.5527 H   0  0  0  0  0  0
   -2.3561   -7.5262   12.3750 H   0  0  0  0  0  0
    6.1974   -0.3626    0.4714 H   0  0  0  0  0  0
   -2.2720   -3.9610    8.9954 H   0  0  0  0  0  0
  1 37  2  0  0  0
  1  2  1  0  0  0
  1 38  1  0  0  0
  2  3  1  0  0  0
  2  9  2  0  0  0
  3  8  2  0  0  0
  3  4  1  0  0  0
  4  5  2  0  0  0
  4 39  1  0  0  0
  5  6  1  0  0  0
  6  7  2  0  0  0
  6 40  1  0  0  0
  7  8  1  0  0  0
  7 41  1  0  0  0
  8 42  1  0  0  0
  9 10  1  0  0  0
  9 70  1  0  0  0
 10 11  1  0  0  0
 10 36  2  0  0  0
 11 12  1  0  0  0
 11 43  1  0  0  0
 12 17  2  0  0  0
 12 13  1  0  0  0
 13 14  2  0  0  0
 13 35  1  0  0  0
 14 15  1  0  0  0
 14 44  1  0  0  0
 15 16  2  0  0  0
 15 45  1  0  0  0
 16 17  1  0  0  0
 16 18  1  0  0  0
 17 46  1  0  0  0
 18 19  1  0  0  0
 18 47  1  0  0  0
 19 20  1  0  0  0
 19 34  2  0  0  0
 20 25  2  0  0  0
 20 21  1  0  0  0
 21 22  2  0  0  0
 21 48  1  0  0  0
 22 23  1  0  0  0
 22 49  1  0  0  0
 23 24  2  0  0  0
 23 26  1  0  0  0
 24 25  1  0  0  0
 24 50  1  0  0  0
 25 51  1  0  0  0
 26 27  1  0  0  0
 26 52  1  0  0  0
 26 53  1  0  0  0
 27 32  1  0  0  0
 27 28  1  0  0  0
 28 29  1  0  0  0
 28 54  1  0  0  0
 28 55  1  0  0  0
 29 30  1  0  0  0
 29 56  1  0  0  0
 29 57  1  0  0  0
 30 31  1  0  0  0
 30 33  1  0  0  0
 30 69  1  0  0  0
 31 32  1  0  0  0
 31 58  1  0  0  0
 31 59  1  0  0  0
 32 60  1  0  0  0
 32 61  1  0  0  0
 33 62  1  0  0  0
 33 63  1  0  0  0
 33 64  1  0  0  0
 35 65  1  0  0  0
 35 66  1  0  0  0
 35 67  1  0  0  0
 36 37  1  0  0  0
 37 68  1  0  0  0
M  CHG  2   9   1  30   1
M  END
> <s_m_source_file>
/Users/andrea/Development/mcce-charges/epik_inhibitors/output/Imatinib/Imatinib-input.mol2

> <i_m_source_file_index>
1

> <r_epik_Ionization_Penalty>
  6.4210

> <r_epik_Ionization_Penalty_Charging>
  6.3926

> <r_epik_Ionization_Penalty_Neutral>
  0.0284

> <r_epik_State_Penalty>
 12.5679

> <i_epik_Tot_Q>
2

$$$$
4-[(4-methylpiperazin-1-yl)methyl]-~{N}-[4-methyl-3-[[4-(3-pyridyl)pyrimidin-2-yl]amino]phenyl]benzamide
                    3D
 Structure written by MMmdl.
 69 73  0  0  1  0            999 V2000
   -2.2404   -7.1062   10.2698 C   0  0  0  0  0  0
   -2.2225   -6.0497    9.3822 C   0  0  0  0  0  0
   -2.1261   -6.2718    7.9594 C   0  0  0  0  0  0
   -1.4605   -7.3756    7.4511 C   0  0  0  0  0  0
   -1.3338   -7.6417    6.1317 N   0  0  0  0  0  0
   -1.9031   -6.7563    5.2835 C   0  0  0  0  0  0
   -2.5897   -5.6235    5.6902 C   0  0  0  0  0  0
   -2.6987   -5.3839    7.0555 C   0  0  0  0  0  0
   -2.2911   -4.7552    9.7563 N   0  0  0  0  0  0
   -2.3803   -4.5515   11.0844 C   0  0  0  0  0  0
   -2.4535   -3.2106   11.5116 N   0  0  0  0  0  0
   -2.4532   -1.9825   10.8141 C   0  0  0  0  0  0
   -3.1249   -0.8719   11.3251 C   0  0  0  0  0  0
   -3.1148    0.3333   10.6229 C   0  0  0  0  0  0
   -2.4330    0.4279    9.4097 C   0  0  0  0  0  0
   -1.7613   -0.6828    8.8987 C   0  0  0  0  0  0
   -1.7714   -1.8879    9.6010 C   0  0  0  0  0  0
   -1.0683   -0.5860    7.6657 N   0  0  0  0  0  0
   -0.3483   -1.5855    7.0095 C   0  0  0  0  0  0
    0.2872   -1.1552    5.7742 C   0  0  0  0  0  0
    0.6454    0.1820    5.6035 C   0  0  0  0  0  0
    1.2550    0.5951    4.4188 C   0  0  0  0  0  0
    1.5062   -0.3291    3.4047 C   0  0  0  0  0  0
    1.1479   -1.6664    3.5754 C   0  0  0  0  0  0
    0.5384   -2.0794    4.7601 C   0  0  0  0  0  0
    2.1604    0.1160    2.1288 C   0  0  0  0  0  0
    3.2187   -0.8002    1.7081 N   0  0  0  0  0  0
    4.4328   -0.5968    2.5079 C   0  0  0  0  0  0
    5.5443   -1.5548    2.0658 C   0  0  0  0  0  0
    5.8387   -1.3892    0.6372 N   0  0  0  0  0  0
    4.6249   -1.5935   -0.1628 C   0  0  0  0  0  0
    3.5125   -0.6365    0.2792 C   0  0  0  0  0  0
    6.8981   -2.3037    0.2160 C   0  0  0  0  0  0
   -0.2094   -2.7337    7.4258 O   0  0  0  0  0  0
   -3.8632   -0.9449   12.6220 C   0  0  0  0  0  0
   -2.4066   -5.4922   12.0477 N   0  3  0  0  0  0
   -2.3347   -6.7641   11.6033 C   0  0  0  0  0  0
   -2.1849   -8.1410    9.9553 H   0  0  0  0  0  0
   -0.9921   -8.1070    8.1036 H   0  0  0  0  0  0
   -1.7894   -6.9877    4.2294 H   0  0  0  0  0  0
   -3.0278   -4.9455    4.9667 H   0  0  0  0  0  0
   -3.2322   -4.5016    7.4003 H   0  0  0  0  0  0
   -2.5279   -2.9784   12.5842 H   0  0  0  0  0  0
   -3.6349    1.2043   11.0128 H   0  0  0  0  0  0
   -2.4315    1.3721    8.8710 H   0  0  0  0  0  0
   -1.2476   -2.7542    9.2020 H   0  0  0  0  0  0
   -1.0604    0.3647    7.1124 H   0  0  0  0  0  0
    0.4548    0.9109    6.3872 H   0  0  0  0  0  0
    1.5303    1.6391    4.2946 H   0  0  0  0  0  0
    1.3397   -2.3930    2.7904 H   0  0  0  0  0  0
    0.2637   -3.1239    4.8822 H   0  0  0  0  0  0
    1.4079    0.1628    1.3278 H   0  0  0  0  0  0
    2.6051    1.1118    2.2727 H   0  0  0  0  0  0
    4.7859    0.4373    2.3819 H   0  0  0  0  0  0
    4.2081   -0.7808    3.5689 H   0  0  0  0  0  0
    6.4579   -1.3473    2.6421 H   0  0  0  0  0  0
    5.2262   -2.5926    2.2440 H   0  0  0  0  0  0
    4.8497   -1.4091   -1.2237 H   0  0  0  0  0  0
    4.2726   -2.6280   -0.0370 H   0  0  0  0  0  0
    2.6074   -0.8507   -0.3081 H   0  0  0  0  0  0
    3.8378    0.3967    0.0877 H   0  0  0  0  0  0
    7.1007   -2.1613   -0.8558 H   0  0  0  0  0  0
    6.5792   -3.3412    0.3943 H   0  0  0  0  0  0
    7.8118   -2.0968    0.7925 H   0  0  0  0  0  0
   -4.3183    0.0325   12.8404 H   0  0  0  0  0  0
   -3.1635   -1.2118   13.4277 H   0  0  0  0  0  0
   -4.6514   -1.7091   12.5527 H   0  0  0  0  0  0
   -2.3561   -7.5262   12.3750 H   0  0  0  0  0  0
   -2.4820   -5.1955   13.1043 H   0  0  0  0  0  0
  1 37  2  0  0  0
  1  2  1  0  0  0
  1 38  1  0  0  0
  2  3  1  0  0  0
  2  9  2  0  0  0
  3  8  2  0  0  0
  3  4  1  0  0  0
  4  5  2  0  0  0
  4 39  1  0  0  0
  5  6  1  0  0  0
  6  7  2  0  0  0
  6 40  1  0  0  0
  7  8  1  0  0  0
  7 41  1  0  0  0
  8 42  1  0  0  0
  9 10  1  0  0  0
 10 11  1  0  0  0
 10 36  2  0  0  0
 11 12  1  0  0  0
 11 43  1  0  0  0
 12 17  2  0  0  0
 12 13  1  0  0  0
 13 14  2  0  0  0
 13 35  1  0  0  0
 14 15  1  0  0  0
 14 44  1  0  0  0
 15 16  2  0  0  0
 15 45  1  0  0  0
 16 17  1  0  0  0
 16 18  1  0  0  0
 17 46  1  0  0  0
 18 19  1  0  0  0
 18 47  1  0  0  0
 19 20  1  0  0  0
 19 34  2  0  0  0
 20 25  2  0  0  0
 20 21  1  0  0  0
 21 22  2  0  0  0
 21 48  1  0  0  0
 22 23  1  0  0  0
 22 49  1  0  0  0
 23 24  2  0  0  0
 23 26  1  0  0  0
 24 25  1  0  0  0
 24 50  1  0  0  0
 25 51  1  0  0  0
 26 27  1  0  0  0
 26 52  1  0  0  0
 26 53  1  0  0  0
 27 32  1  0  0  0
 27 28  1  0  0  0
 28 29  1  0  0  0
 28 54  1  0  0  0
 28 55  1  0  0  0
 29 30  1  0  0  0
 29 56  1  0  0  0
 29 57  1  0  0  0
 30 31  1  0  0  0
 30 33  1  0  0  0
 31 32  1  0  0  0
 31 58  1  0  0  0
 31 59  1  0  0  0
 32 60  1  0  0  0
 32 61  1  0  0  0
 33 62  1  0  0  0
 33 63  1  0  0  0
 33 64  1  0  0  0
 35 65  1  0  0  0
 35 66  1  0  0  0
 35 67  1  0  0  0
 36 37  1  0  0  0
 36 69  1  0  0  0
 37 68  1  0  0  0
M  CHG  1  36   1
M  END
> <s_m_source_file>
/Users/andrea/Development/mcce-charges/epik_inhibitors/output/Imatinib/Imatinib-input.mol2

> <i_m_source_file_index>
1

> <r_epik_Ionization_Penalty>
  8.9556

> <r_epik_Ionization_Penalty_Charging>
  5.8827

> <r_epik_Ionization_Penalty_Neutral>
  3.0730

> <r_epik_State_Penalty>
 13.5769

> <i_epik_Tot_Q>
1

$$$$
