@<TRIPOS>MOLECULE
4-[(4-methylpiperazin-1-yl)methyl]-~{N}-[4-methyl-3-[[4-(3-pyridyl)pyrimidin-2-yl]amino]phenyl]benzamide
   68    72     0     0     0
SMALL
USER_CHARGES

@<TRIPOS>ATOM
      1 C1         -2.2404   -7.1062   10.2698 C.ar      1 IMA        -0.4095
      2 C2         -2.2225   -6.0497    9.3822 C.ar      1 IMA         0.5362
      3 C3         -2.1261   -6.2718    7.9594 C.ar      1 IMA        -0.2733
      4 C4         -1.4605   -7.3756    7.4511 C.ar      1 IMA         0.4308
      5 N1         -1.3338   -7.6417    6.1317 N.ar      1 IMA        -0.6658
      6 C5         -1.9031   -6.7563    5.2835 C.ar      1 IMA         0.4043
      7 C6         -2.5897   -5.6235    5.6902 C.ar      1 IMA        -0.2507
      8 C7         -2.6987   -5.3839    7.0555 C.ar      1 IMA        -0.0711
      9 N2         -2.2911   -4.7552    9.7563 N.ar      1 IMA        -0.7480
     10 C8         -2.3803   -4.5515   11.0844 C.ar      1 IMA         0.8872
     11 N3         -2.4535   -3.2106   11.5116 N.pl3     1 IMA        -0.7208
     12 C9         -2.4532   -1.9825   10.8141 C.ar      1 IMA         0.1772
     13 C10        -3.1249   -0.8719   11.3251 C.ar      1 IMA        -0.1448
     14 C11        -3.1148    0.3333   10.6229 C.ar      1 IMA        -0.0880
     15 C12        -2.4330    0.4279    9.4097 C.ar      1 IMA        -0.1675
     16 C13        -1.7613   -0.6828    8.8987 C.ar      1 IMA         0.0847
     17 C14        -1.7714   -1.8879    9.6010 C.ar      1 IMA        -0.1860
     18 N4         -1.0683   -0.5860    7.6657 N.am      1 IMA        -0.4688
     19 C15        -0.3483   -1.5855    7.0095 C.2       1 IMA         0.6835
     20 C16         0.2872   -1.1552    5.7742 C.ar      1 IMA        -0.1523
     21 C17         0.6454    0.1820    5.6035 C.ar      1 IMA        -0.0933
     22 C18         1.2550    0.5951    4.4188 C.ar      1 IMA        -0.1271
     23 C19         1.5062   -0.3291    3.4047 C.ar      1 IMA        -0.0603
     24 C20         1.1479   -1.6664    3.5754 C.ar      1 IMA        -0.1271
     25 C21         0.5384   -2.0794    4.7601 C.ar      1 IMA        -0.0933
     26 C22         2.1604    0.1160    2.1288 C.3       1 IMA         0.2165
     27 N5          3.2187   -0.8002    1.7081 N.3       1 IMA        -0.7459
     28 C23         4.4328   -0.5968    2.5079 C.3       1 IMA         0.1754
     29 C24         5.5443   -1.5548    2.0658 C.3       1 IMA         0.1708
     30 N6          5.8387   -1.3892    0.6372 N.3       1 IMA        -0.7397
     31 C25         4.6249   -1.5935   -0.1628 C.3       1 IMA         0.1708
     32 C26         3.5125   -0.6365    0.2792 C.3       1 IMA         0.1754
     33 C27         6.8981   -2.3037    0.2160 C.3       1 IMA         0.1608
     34 O1         -0.2094   -2.7337    7.4258 O.2       1 IMA        -0.5862
     35 C28        -3.8632   -0.9449   12.6220 C.3       1 IMA        -0.0530
     36 N7         -2.4066   -5.4922   12.0477 N.ar      1 IMA        -0.7390
     37 C29        -2.3347   -6.7641   11.6033 C.ar      1 IMA         0.4619
     38 H1         -2.1849   -8.1410    9.9553 H         1 IMA         0.1589
     39 H2         -0.9921   -8.1070    8.1036 H         1 IMA         0.0335
     40 H3         -1.7894   -6.9877    4.2294 H         1 IMA         0.0247
     41 H4         -3.0278   -4.9455    4.9667 H         1 IMA         0.1463
     42 H5         -3.2322   -4.5016    7.4003 H         1 IMA         0.1439
     43 H6         -2.5187   -3.1069   12.5204 H         1 IMA         0.4541
     44 H7         -3.6349    1.2043   11.0128 H         1 IMA         0.1366
     45 H8         -2.4315    1.3721    8.8710 H         1 IMA         0.1760
     46 H9         -1.2476   -2.7542    9.2020 H         1 IMA         0.1531
     47 H10        -1.0995    0.3198    7.2043 H         1 IMA         0.3224
     48 H11         0.4548    0.9109    6.3872 H         1 IMA         0.1467
     49 H12         1.5303    1.6391    4.2946 H         1 IMA         0.1452
     50 H13         1.3397   -2.3930    2.7904 H         1 IMA         0.1452
     51 H14         0.2637   -3.1239    4.8822 H         1 IMA         0.1467
     52 H15         1.4253    0.1769    1.3189 H         1 IMA         0.0434
     53 H16         2.6040    1.1109    2.2409 H         1 IMA         0.0434
     54 H17         4.7858    0.4404    2.4278 H         1 IMA         0.0379
     55 H18         4.2153   -0.7862    3.5661 H         1 IMA         0.0379
     56 H19         6.4422   -1.3370    2.6568 H         1 IMA         0.0372
     57 H20         5.2501   -2.5896    2.2881 H         1 IMA         0.0372
     58 H21         4.8423   -1.4039   -1.2210 H         1 IMA         0.0372
     59 H22         4.2727   -2.6310   -0.0826 H         1 IMA         0.0372
     60 H23         3.8057    0.3984    0.0555 H         1 IMA         0.0379
     61 H24         2.6145   -0.8556   -0.3113 H         1 IMA         0.0379
     62 H25         7.0903   -2.1555   -0.8415 H         1 IMA         0.0323
     63 H26         6.5760   -3.3244    0.3950 H         1 IMA         0.0323
     64 H27         7.7953   -2.0935    0.7891 H         1 IMA         0.0323
     65 H28        -3.1989   -0.6787   13.4520 H         1 IMA         0.0437
     66 H29        -4.7216   -0.2622   12.6277 H         1 IMA         0.0437
     67 H30        -4.2559   -1.9539   12.7975 H         1 IMA         0.0437
     68 H31        -2.3561   -7.5262   12.3750 H         1 IMA         0.0273
@<TRIPOS>BOND
     1    1   37 ar
     2    1    2 ar
     3    2    3 1
     4    3    8 ar
     5    3    4 ar
     6    4    5 ar
     7    5    6 ar
     8    6    7 ar
     9    7    8 ar
    10    2    9 ar
    11    9   10 ar
    12   10   11 1
    13   11   12 1
    14   12   17 ar
    15   12   13 ar
    16   13   14 ar
    17   14   15 ar
    18   15   16 ar
    19   16   17 ar
    20   16   18 1
    21   18   19 am
    22   19   20 1
    23   20   25 ar
    24   20   21 ar
    25   21   22 ar
    26   22   23 ar
    27   23   24 ar
    28   24   25 ar
    29   23   26 1
    30   26   27 1
    31   27   32 1
    32   27   28 1
    33   28   29 1
    34   29   30 1
    35   30   31 1
    36   31   32 1
    37   30   33 1
    38   19   34 2
    39   13   35 1
    40   10   36 ar
    41   36   37 ar
    42    1   38 1
    43    4   39 1
    44    6   40 1
    45    7   41 1
    46    8   42 1
    47   11   43 1
    48   14   44 1
    49   15   45 1
    50   17   46 1
    51   18   47 1
    52   21   48 1
    53   22   49 1
    54   24   50 1
    55   25   51 1
    56   26   52 1
    57   26   53 1
    58   28   54 1
    59   28   55 1
    60   29   56 1
    61   29   57 1
    62   31   58 1
    63   31   59 1
    64   32   60 1
    65   32   61 1
    66   33   62 1
    67   33   63 1
    68   33   64 1
    69   35   65 1
    70   35   66 1
    71   35   67 1
    72   37   68 1
