@<TRIPOS>MOLECULE
STI
71   75    1
SMALL
USER_CHARGES


@<TRIPOS>ATOM
      1 C1         16.3560  100.4060   50.6140 C.3       1 STI         0.0000 
      2 C6         15.2180  100.0120   51.4140 C.3       1 STI         0.0000 
      3 C5         15.0890  100.4530   52.7980 C.3       1 STI         0.0000 
      4 C4         16.1380  101.2980   53.3390 C.3       1 STI         0.0000 
      5 N3         17.2200  101.6600   52.5430 N.3       1 STI         0.0000 
      6 C2         17.3560  101.2430   51.2150 C.3       1 STI         0.0000 
      7 C7         13.9280  100.0780   53.6730 C.3       1 STI         0.0000 
      8 C12        12.7230   99.4700   53.1730 C.3       1 STI         0.0000 
      9 C11        11.7040   99.1720   54.1140 C.3       1 STI         0.0000 
     10 N10        11.8810   99.4640   55.4560 N.3       1 STI         0.0000 
     11 C9         13.0530  100.0500   55.9070 C.3       1 STI         0.0000 
     12 N8         14.0460  100.3450   55.0230 N.3       1 STI         0.0000 
     13 N13        13.2630  100.3620   57.2530 N.3       1 STI         0.0000 
     14 C14        12.3020  100.1090   58.2460 C.3       1 STI         0.0000 
     15 C19        11.1950  101.0400   58.4880 C.3       1 STI         0.0000 
     16 C18        10.2510  100.7220   59.5240 C.3       1 STI         0.0000 
     17 C17        10.3860   99.5200   60.3090 C.3       1 STI         0.0000 
     18 C16        11.4560   98.6100   60.0860 C.3       1 STI         0.0000 
     19 C15        12.4240   98.9210   59.0320 C.3       1 STI         0.0000 
     20 N21        11.5160   97.4360   60.9230 N.3       1 STI         0.0000 
     21 C22        12.4460   96.4150   60.9100 C.3       1 STI         0.0000 
     22 C23        12.4720   95.4420   62.0420 C.3       1 STI         0.0000 
     23 C25        13.6890   94.6960   62.3640 C.3       1 STI         0.0000 
     24 C26        13.6820   93.7490   63.4490 C.3       1 STI         0.0000 
     25 C27        12.4630   93.5460   64.2140 C.3       1 STI         0.0000 
     26 C28        11.2740   94.3010   63.8790 C.3       1 STI         0.0000 
     27 C29        11.2720   95.2300   62.8170 C.3       1 STI         0.0000 
     28 C46        12.3710   92.5420   65.3680 C.3       1 STI         0.0000 
     29 N48        11.2300   91.5790   65.3640 N.3       1 STI         0.0000 
     30 C53        11.2140   90.7780   64.0930 C.3       1 STI         0.0000 
     31 C52        10.0310   89.7760   64.0670 C.3       1 STI         0.0000 
     32 N51        10.0810   88.8580   65.2780 N.4       1 STI         0.0000 
     33 C54         8.9850   87.8750   65.3060 C.3       1 STI         0.0000 
     34 C50        10.0700   89.6590   66.5720 C.3       1 STI         0.0000 
     35 C49        11.2730   90.6520   66.5740 C.3       1 STI         0.0000 
     36 O29        13.2580   96.2310   60.0240 O.3       1 STI         0.0000 
     37 C20        10.9860  102.3510   57.6940 C.3       1 STI         0.0000 
     38 H11        16.4590  100.0740   49.5660 H         1 STI         0.0000 
     39 H61        14.4410   99.3690   50.9640 H         1 STI         0.0000 
     40 H41        16.1120  101.6720   54.3760 H         1 STI         0.0000 
     41 H21        18.2430  101.5700   50.6470 H         1 STI         0.0000 
     42 H121       12.5840   99.2390   52.1030 H         1 STI         0.0000 
     43 H111       10.7560   98.7040   53.7960 H         1 STI         0.0000 
     44 H131       14.2099  100.8239   57.5693 H         1 STI         0.0000 
     45 H181        9.4110  101.4100   59.7190 H         1 STI         0.0000 
     46 H171        9.6520   99.2900   61.1000 H         1 STI         0.0000 
     47 H151       13.2680   98.2410   58.8240 H         1 STI         0.0000 
     48 H211       10.7496   97.2709   61.6947 H         1 STI         0.0000 
     49 H251       14.6160   94.8480   61.7860 H         1 STI         0.0000 
     50 H261       14.5990   93.1860   63.6910 H         1 STI         0.0000 
     51 H281       10.3400   94.1640   64.4500 H         1 STI         0.0000 
     52 H291       10.3440   95.7830   62.5950 H         1 STI         0.0000 
     53 H461       13.2755   91.9162   65.3825 H         1 STI         0.0000 
     54 H462       12.2856   93.0852   66.3207 H         1 STI         0.0000 
     55 H531       11.1140   91.4567   63.2331 H         1 STI         0.0000 
     56 H532       12.1524   90.2108   64.0052 H         1 STI         0.0000 
     57 H521        9.0808   90.3301   64.0787 H         1 STI         0.0000 
     58 H522       10.0879   89.1651   63.1540 H         1 STI         0.0000 
     59 H541        9.0798   87.2456   66.2031 H         1 STI         0.0000 
     60 H542        9.0365   87.2427   64.4074 H         1 STI         0.0000 
     61 H543        8.0199   88.4024   65.3284 H         1 STI         0.0000 
     62 H501        9.1279   90.2218   66.6468 H         1 STI         0.0000 
     63 H502       10.1567   88.9738   67.4281 H         1 STI         0.0000 
     64 H491       12.2064   90.0701   66.5571 H         1 STI         0.0000 
     65 H492       11.2306   91.2504   67.4960 H         1 STI         0.0000 
     66 H201       10.0887  102.8665   58.0670 H         1 STI         0.0000 
     67 H202       10.8574  102.1168   56.6269 H         1 STI         0.0000 
     68 H203       11.8633  103.0019   57.8234 H         1 STI         0.0000 
     69 H69        14.9632  100.8099   55.4136 H         1 STI         0.0000 
     70 H70        11.0856   99.2307   56.1792 H         1 STI         0.0000 
     71 H71        11.0061   88.2695   65.1892 H         1 STI         0.0000 
@<TRIPOS>BOND
     1    1    2 1    
     2    1    6 1    
     3    1   38 1    
     4    2    3 1    
     5    2   39 1    
     6    3    4 1    
     7    3    7 1    
     8    4    5 1    
     9    4   40 1    
    10    5    6 1    
    11    6   41 1    
    12    7    8 1    
    13    7   12 1    
    14    8    9 1    
    15    8   42 1    
    16    9   10 1    
    17    9   43 1    
    18   10   11 1    
    19   10   70 1    
    20   11   12 1    
    21   11   13 1    
    22   12   69 1    
    23   13   14 1    
    24   13   44 1    
    25   14   15 1    
    26   14   19 1    
    27   15   16 1    
    28   15   37 1    
    29   16   17 1    
    30   16   45 1    
    31   17   18 1    
    32   17   46 1    
    33   18   19 1    
    34   18   20 1    
    35   19   47 1    
    36   20   21 1    
    37   20   48 1    
    38   21   22 1    
    39   21   36 1    
    40   22   23 1    
    41   22   27 1    
    42   23   24 1    
    43   23   49 1    
    44   24   25 1    
    45   24   50 1    
    46   25   26 1    
    47   25   28 1    
    48   26   27 1    
    49   26   51 1    
    50   27   52 1    
    51   28   29 1    
    52   28   53 1    
    53   28   54 1    
    54   29   30 1    
    55   29   35 1    
    56   30   31 1    
    57   30   55 1    
    58   30   56 1    
    59   31   32 1    
    60   31   57 1    
    61   31   58 1    
    62   32   33 1    
    63   32   34 1    
    64   32   71 1    
    65   33   59 1    
    66   33   60 1    
    67   33   61 1    
    68   34   35 1    
    69   34   62 1    
    70   34   63 1    
    71   35   64 1    
    72   35   65 1    
    73   37   66 1    
    74   37   67 1    
    75   37   68 1    
@<TRIPOS>SUBSTRUCTURE
     1 STI         1 GROUP             0       ****    0 ROOT    
@<TRIPOS>MOLECULE
STI
71   75    1
SMALL
USER_CHARGES


@<TRIPOS>ATOM
      1 C1         16.3560  100.4060   50.6140 C.3       1 STI         0.0000 
      2 C6         15.2180  100.0120   51.4140 C.3       1 STI         0.0000 
      3 C5         15.0890  100.4530   52.7980 C.3       1 STI         0.0000 
      4 C4         16.1380  101.2980   53.3390 C.3       1 STI         0.0000 
      5 N3         17.2200  101.6600   52.5430 N.3       1 STI         0.0000 
      6 C2         17.3560  101.2430   51.2150 C.3       1 STI         0.0000 
      7 C7         13.9280  100.0780   53.6730 C.3       1 STI         0.0000 
      8 C12        12.7230   99.4700   53.1730 C.3       1 STI         0.0000 
      9 C11        11.7040   99.1720   54.1140 C.3       1 STI         0.0000 
     10 N10        11.8810   99.4640   55.4560 N.3       1 STI         0.0000 
     11 C9         13.0530  100.0500   55.9070 C.3       1 STI         0.0000 
     12 N8         14.0460  100.3450   55.0230 N.3       1 STI         0.0000 
     13 N13        13.2630  100.3620   57.2530 N.3       1 STI         0.0000 
     14 C14        12.3020  100.1090   58.2460 C.3       1 STI         0.0000 
     15 C19        11.1950  101.0400   58.4880 C.3       1 STI         0.0000 
     16 C18        10.2510  100.7220   59.5240 C.3       1 STI         0.0000 
     17 C17        10.3860   99.5200   60.3090 C.3       1 STI         0.0000 
     18 C16        11.4560   98.6100   60.0860 C.3       1 STI         0.0000 
     19 C15        12.4240   98.9210   59.0320 C.3       1 STI         0.0000 
     20 N21        11.5160   97.4360   60.9230 N.3       1 STI         0.0000 
     21 C22        12.4460   96.4150   60.9100 C.3       1 STI         0.0000 
     22 C23        12.4720   95.4420   62.0420 C.3       1 STI         0.0000 
     23 C25        13.6890   94.6960   62.3640 C.3       1 STI         0.0000 
     24 C26        13.6820   93.7490   63.4490 C.3       1 STI         0.0000 
     25 C27        12.4630   93.5460   64.2140 C.3       1 STI         0.0000 
     26 C28        11.2740   94.3010   63.8790 C.3       1 STI         0.0000 
     27 C29        11.2720   95.2300   62.8170 C.3       1 STI         0.0000 
     28 C46        12.3710   92.5420   65.3680 C.3       1 STI         0.0000 
     29 N48        11.2300   91.5790   65.3640 N.4       1 STI         0.0000 
     30 C53        11.2140   90.7780   64.0930 C.3       1 STI         0.0000 
     31 C52        10.0310   89.7760   64.0670 C.3       1 STI         0.0000 
     32 N51        10.0810   88.8580   65.2780 N.3       1 STI         0.0000 
     33 C54         8.9850   87.8750   65.3060 C.3       1 STI         0.0000 
     34 C50        10.0700   89.6590   66.5720 C.3       1 STI         0.0000 
     35 C49        11.2730   90.6520   66.5740 C.3       1 STI         0.0000 
     36 O29        13.2580   96.2310   60.0240 O.3       1 STI         0.0000 
     37 C20        10.9860  102.3510   57.6940 C.3       1 STI         0.0000 
     38 H11        16.4590  100.0740   49.5660 H         1 STI         0.0000 
     39 H61        14.4410   99.3690   50.9640 H         1 STI         0.0000 
     40 H41        16.1120  101.6720   54.3760 H         1 STI         0.0000 
     41 H21        18.2430  101.5700   50.6470 H         1 STI         0.0000 
     42 H121       12.5840   99.2390   52.1030 H         1 STI         0.0000 
     43 H111       10.7560   98.7040   53.7960 H         1 STI         0.0000 
     44 H131       14.2099  100.8239   57.5693 H         1 STI         0.0000 
     45 H181        9.4110  101.4100   59.7190 H         1 STI         0.0000 
     46 H171        9.6520   99.2900   61.1000 H         1 STI         0.0000 
     47 H151       13.2680   98.2410   58.8240 H         1 STI         0.0000 
     48 H211       10.7496   97.2709   61.6947 H         1 STI         0.0000 
     49 H251       14.6160   94.8480   61.7860 H         1 STI         0.0000 
     50 H261       14.5990   93.1860   63.6910 H         1 STI         0.0000 
     51 H281       10.3400   94.1640   64.4500 H         1 STI         0.0000 
     52 H291       10.3440   95.7830   62.5950 H         1 STI         0.0000 
     53 H461       13.2755   91.9162   65.3825 H         1 STI         0.0000 
     54 H462       12.2856   93.0852   66.3207 H         1 STI         0.0000 
     55 H531       11.1140   91.4567   63.2331 H         1 STI         0.0000 
     56 H532       12.1524   90.2108   64.0052 H         1 STI         0.0000 
     57 H521        9.0808   90.3301   64.0787 H         1 STI         0.0000 
     58 H522       10.0879   89.1651   63.1540 H         1 STI         0.0000 
     59 H541        9.0798   87.2456   66.2031 H         1 STI         0.0000 
     60 H542        9.0365   87.2427   64.4074 H         1 STI         0.0000 
     61 H543        8.0199   88.4024   65.3284 H         1 STI         0.0000 
     62 H501        9.1279   90.2218   66.6468 H         1 STI         0.0000 
     63 H502       10.1567   88.9738   67.4281 H         1 STI         0.0000 
     64 H491       12.2064   90.0701   66.5571 H         1 STI         0.0000 
     65 H492       11.2306   91.2504   67.4960 H         1 STI         0.0000 
     66 H201       10.0887  102.8665   58.0670 H         1 STI         0.0000 
     67 H202       10.8574  102.1168   56.6269 H         1 STI         0.0000 
     68 H203       11.8633  103.0019   57.8234 H         1 STI         0.0000 
     69 H69        14.9632  100.8099   55.4136 H         1 STI         0.0000 
     70 H70        11.0856   99.2307   56.1792 H         1 STI         0.0000 
     71 H71        10.3106   92.1812   65.4089 H         1 STI         0.0000 
@<TRIPOS>BOND
     1    1    2 1    
     2    1    6 1    
     3    1   38 1    
     4    2    3 1    
     5    2   39 1    
     6    3    4 1    
     7    3    7 1    
     8    4    5 1    
     9    4   40 1    
    10    5    6 1    
    11    6   41 1    
    12    7    8 1    
    13    7   12 1    
    14    8    9 1    
    15    8   42 1    
    16    9   10 1    
    17    9   43 1    
    18   10   11 1    
    19   10   70 1    
    20   11   12 1    
    21   11   13 1    
    22   12   69 1    
    23   13   14 1    
    24   13   44 1    
    25   14   15 1    
    26   14   19 1    
    27   15   16 1    
    28   15   37 1    
    29   16   17 1    
    30   16   45 1    
    31   17   18 1    
    32   17   46 1    
    33   18   19 1    
    34   18   20 1    
    35   19   47 1    
    36   20   21 1    
    37   20   48 1    
    38   21   22 1    
    39   21   36 1    
    40   22   23 1    
    41   22   27 1    
    42   23   24 1    
    43   23   49 1    
    44   24   25 1    
    45   24   50 1    
    46   25   26 1    
    47   25   28 1    
    48   26   27 1    
    49   26   51 1    
    50   27   52 1    
    51   28   29 1    
    52   28   53 1    
    53   28   54 1    
    54   29   30 1    
    55   29   35 1    
    56   29   71 1    
    57   30   31 1    
    58   30   55 1    
    59   30   56 1    
    60   31   32 1    
    61   31   57 1    
    62   31   58 1    
    63   32   33 1    
    64   32   34 1    
    65   33   59 1    
    66   33   60 1    
    67   33   61 1    
    68   34   35 1    
    69   34   62 1    
    70   34   63 1    
    71   35   64 1    
    72   35   65 1    
    73   37   66 1    
    74   37   67 1    
    75   37   68 1    
@<TRIPOS>SUBSTRUCTURE
     1 STI         1 GROUP             0       ****    0 ROOT    
@<TRIPOS>MOLECULE
STI
70   74    1
SMALL
USER_CHARGES


@<TRIPOS>ATOM
      1 C1         16.3560  100.4060   50.6140 C.3       1 STI         0.0000 
      2 C6         15.2180  100.0120   51.4140 C.3       1 STI         0.0000 
      3 C5         15.0890  100.4530   52.7980 C.3       1 STI         0.0000 
      4 C4         16.1380  101.2980   53.3390 C.3       1 STI         0.0000 
      5 N3         17.2200  101.6600   52.5430 N.3       1 STI         0.0000 
      6 C2         17.3560  101.2430   51.2150 C.3       1 STI         0.0000 
      7 C7         13.9280  100.0780   53.6730 C.3       1 STI         0.0000 
      8 C12        12.7230   99.4700   53.1730 C.3       1 STI         0.0000 
      9 C11        11.7040   99.1720   54.1140 C.3       1 STI         0.0000 
     10 N10        11.8810   99.4640   55.4560 N.3       1 STI         0.0000 
     11 C9         13.0530  100.0500   55.9070 C.3       1 STI         0.0000 
     12 N8         14.0460  100.3450   55.0230 N.3       1 STI         0.0000 
     13 N13        13.2630  100.3620   57.2530 N.3       1 STI         0.0000 
     14 C14        12.3020  100.1090   58.2460 C.3       1 STI         0.0000 
     15 C19        11.1950  101.0400   58.4880 C.3       1 STI         0.0000 
     16 C18        10.2510  100.7220   59.5240 C.3       1 STI         0.0000 
     17 C17        10.3860   99.5200   60.3090 C.3       1 STI         0.0000 
     18 C16        11.4560   98.6100   60.0860 C.3       1 STI         0.0000 
     19 C15        12.4240   98.9210   59.0320 C.3       1 STI         0.0000 
     20 N21        11.5160   97.4360   60.9230 N.3       1 STI         0.0000 
     21 C22        12.4460   96.4150   60.9100 C.3       1 STI         0.0000 
     22 C23        12.4720   95.4420   62.0420 C.3       1 STI         0.0000 
     23 C25        13.6890   94.6960   62.3640 C.3       1 STI         0.0000 
     24 C26        13.6820   93.7490   63.4490 C.3       1 STI         0.0000 
     25 C27        12.4630   93.5460   64.2140 C.3       1 STI         0.0000 
     26 C28        11.2740   94.3010   63.8790 C.3       1 STI         0.0000 
     27 C29        11.2720   95.2300   62.8170 C.3       1 STI         0.0000 
     28 C46        12.3710   92.5420   65.3680 C.3       1 STI         0.0000 
     29 N48        11.2300   91.5790   65.3640 N.3       1 STI         0.0000 
     30 C53        11.2140   90.7780   64.0930 C.3       1 STI         0.0000 
     31 C52        10.0310   89.7760   64.0670 C.3       1 STI         0.0000 
     32 N51        10.0810   88.8580   65.2780 N.3       1 STI         0.0000 
     33 C54         8.9850   87.8750   65.3060 C.3       1 STI         0.0000 
     34 C50        10.0700   89.6590   66.5720 C.3       1 STI         0.0000 
     35 C49        11.2730   90.6520   66.5740 C.3       1 STI         0.0000 
     36 O29        13.2580   96.2310   60.0240 O.3       1 STI         0.0000 
     37 C20        10.9860  102.3510   57.6940 C.3       1 STI         0.0000 
     38 H11        16.4590  100.0740   49.5660 H         1 STI         0.0000 
     39 H61        14.4410   99.3690   50.9640 H         1 STI         0.0000 
     40 H41        16.1120  101.6720   54.3760 H         1 STI         0.0000 
     41 H21        18.2430  101.5700   50.6470 H         1 STI         0.0000 
     42 H121       12.5840   99.2390   52.1030 H         1 STI         0.0000 
     43 H111       10.7560   98.7040   53.7960 H         1 STI         0.0000 
     44 H131       14.2099  100.8239   57.5693 H         1 STI         0.0000 
     45 H181        9.4110  101.4100   59.7190 H         1 STI         0.0000 
     46 H171        9.6520   99.2900   61.1000 H         1 STI         0.0000 
     47 H151       13.2680   98.2410   58.8240 H         1 STI         0.0000 
     48 H211       10.7496   97.2709   61.6947 H         1 STI         0.0000 
     49 H251       14.6160   94.8480   61.7860 H         1 STI         0.0000 
     50 H261       14.5990   93.1860   63.6910 H         1 STI         0.0000 
     51 H281       10.3400   94.1640   64.4500 H         1 STI         0.0000 
     52 H291       10.3440   95.7830   62.5950 H         1 STI         0.0000 
     53 H461       13.2755   91.9162   65.3825 H         1 STI         0.0000 
     54 H462       12.2856   93.0852   66.3207 H         1 STI         0.0000 
     55 H531       11.1140   91.4567   63.2331 H         1 STI         0.0000 
     56 H532       12.1524   90.2108   64.0052 H         1 STI         0.0000 
     57 H521        9.0808   90.3301   64.0787 H         1 STI         0.0000 
     58 H522       10.0879   89.1651   63.1540 H         1 STI         0.0000 
     59 H541        9.0798   87.2456   66.2031 H         1 STI         0.0000 
     60 H542        9.0365   87.2427   64.4074 H         1 STI         0.0000 
     61 H543        8.0199   88.4024   65.3284 H         1 STI         0.0000 
     62 H501        9.1279   90.2218   66.6468 H         1 STI         0.0000 
     63 H502       10.1567   88.9738   67.4281 H         1 STI         0.0000 
     64 H491       12.2064   90.0701   66.5571 H         1 STI         0.0000 
     65 H492       11.2306   91.2504   67.4960 H         1 STI         0.0000 
     66 H201       10.0887  102.8665   58.0670 H         1 STI         0.0000 
     67 H202       10.8574  102.1168   56.6269 H         1 STI         0.0000 
     68 H203       11.8633  103.0019   57.8234 H         1 STI         0.0000 
     69 H69        14.9632  100.8099   55.4136 H         1 STI         0.0000 
     70 H70        11.0856   99.2307   56.1792 H         1 STI         0.0000 
@<TRIPOS>BOND
     1    1    2 1    
     2    1    6 1    
     3    1   38 1    
     4    2    3 1    
     5    2   39 1    
     6    3    4 1    
     7    3    7 1    
     8    4    5 1    
     9    4   40 1    
    10    5    6 1    
    11    6   41 1    
    12    7    8 1    
    13    7   12 1    
    14    8    9 1    
    15    8   42 1    
    16    9   10 1    
    17    9   43 1    
    18   10   11 1    
    19   10   70 1    
    20   11   12 1    
    21   11   13 1    
    22   12   69 1    
    23   13   14 1    
    24   13   44 1    
    25   14   15 1    
    26   14   19 1    
    27   15   16 1    
    28   15   37 1    
    29   16   17 1    
    30   16   45 1    
    31   17   18 1    
    32   17   46 1    
    33   18   19 1    
    34   18   20 1    
    35   19   47 1    
    36   20   21 1    
    37   20   48 1    
    38   21   22 1    
    39   21   36 1    
    40   22   23 1    
    41   22   27 1    
    42   23   24 1    
    43   23   49 1    
    44   24   25 1    
    45   24   50 1    
    46   25   26 1    
    47   25   28 1    
    48   26   27 1    
    49   26   51 1    
    50   27   52 1    
    51   28   29 1    
    52   28   53 1    
    53   28   54 1    
    54   29   30 1    
    55   29   35 1    
    56   30   31 1    
    57   30   55 1    
    58   30   56 1    
    59   31   32 1    
    60   31   57 1    
    61   31   58 1    
    62   32   33 1    
    63   32   34 1    
    64   33   59 1    
    65   33   60 1    
    66   33   61 1    
    67   34   35 1    
    68   34   62 1    
    69   34   63 1    
    70   35   64 1    
    71   35   65 1    
    72   37   66 1    
    73   37   67 1    
    74   37   68 1    
@<TRIPOS>SUBSTRUCTURE
     1 STI         1 GROUP             0       ****    0 ROOT    
@<TRIPOS>MOLECULE
STI
72   76    1
SMALL
USER_CHARGES


@<TRIPOS>ATOM
      1 C1         16.3560  100.4060   50.6140 C.3       1 STI         0.0000 
      2 C6         15.2180  100.0120   51.4140 C.3       1 STI         0.0000 
      3 C5         15.0890  100.4530   52.7980 C.3       1 STI         0.0000 
      4 C4         16.1380  101.2980   53.3390 C.3       1 STI         0.0000 
      5 N3         17.2200  101.6600   52.5430 N.3       1 STI         0.0000 
      6 C2         17.3560  101.2430   51.2150 C.3       1 STI         0.0000 
      7 C7         13.9280  100.0780   53.6730 C.3       1 STI         0.0000 
      8 C12        12.7230   99.4700   53.1730 C.3       1 STI         0.0000 
      9 C11        11.7040   99.1720   54.1140 C.3       1 STI         0.0000 
     10 N10        11.8810   99.4640   55.4560 N.3       1 STI         0.0000 
     11 C9         13.0530  100.0500   55.9070 C.3       1 STI         0.0000 
     12 N8         14.0460  100.3450   55.0230 N.3       1 STI         0.0000 
     13 N13        13.2630  100.3620   57.2530 N.4       1 STI         0.0000 
     14 C14        12.3020  100.1090   58.2460 C.3       1 STI         0.0000 
     15 C19        11.1950  101.0400   58.4880 C.3       1 STI         0.0000 
     16 C18        10.2510  100.7220   59.5240 C.3       1 STI         0.0000 
     17 C17        10.3860   99.5200   60.3090 C.3       1 STI         0.0000 
     18 C16        11.4560   98.6100   60.0860 C.3       1 STI         0.0000 
     19 C15        12.4240   98.9210   59.0320 C.3       1 STI         0.0000 
     20 N21        11.5160   97.4360   60.9230 N.3       1 STI         0.0000 
     21 C22        12.4460   96.4150   60.9100 C.3       1 STI         0.0000 
     22 C23        12.4720   95.4420   62.0420 C.3       1 STI         0.0000 
     23 C25        13.6890   94.6960   62.3640 C.3       1 STI         0.0000 
     24 C26        13.6820   93.7490   63.4490 C.3       1 STI         0.0000 
     25 C27        12.4630   93.5460   64.2140 C.3       1 STI         0.0000 
     26 C28        11.2740   94.3010   63.8790 C.3       1 STI         0.0000 
     27 C29        11.2720   95.2300   62.8170 C.3       1 STI         0.0000 
     28 C46        12.3710   92.5420   65.3680 C.3       1 STI         0.0000 
     29 N48        11.2300   91.5790   65.3640 N.3       1 STI         0.0000 
     30 C53        11.2140   90.7780   64.0930 C.3       1 STI         0.0000 
     31 C52        10.0310   89.7760   64.0670 C.3       1 STI         0.0000 
     32 N51        10.0810   88.8580   65.2780 N.4       1 STI         0.0000 
     33 C54         8.9850   87.8750   65.3060 C.3       1 STI         0.0000 
     34 C50        10.0700   89.6590   66.5720 C.3       1 STI         0.0000 
     35 C49        11.2730   90.6520   66.5740 C.3       1 STI         0.0000 
     36 O29        13.2580   96.2310   60.0240 O.3       1 STI         0.0000 
     37 C20        10.9860  102.3510   57.6940 C.3       1 STI         0.0000 
     38 H11        16.4590  100.0740   49.5660 H         1 STI         0.0000 
     39 H61        14.4410   99.3690   50.9640 H         1 STI         0.0000 
     40 H41        16.1120  101.6720   54.3760 H         1 STI         0.0000 
     41 H21        18.2430  101.5700   50.6470 H         1 STI         0.0000 
     42 H121       12.5840   99.2390   52.1030 H         1 STI         0.0000 
     43 H111       10.7560   98.7040   53.7960 H         1 STI         0.0000 
     44 H131       14.1414   99.8135   57.6238 H         1 STI         0.0000 
     45 H181        9.4110  101.4100   59.7190 H         1 STI         0.0000 
     46 H171        9.6520   99.2900   61.1000 H         1 STI         0.0000 
     47 H151       13.2680   98.2410   58.8240 H         1 STI         0.0000 
     48 H211       10.7496   97.2709   61.6947 H         1 STI         0.0000 
     49 H251       14.6160   94.8480   61.7860 H         1 STI         0.0000 
     50 H261       14.5990   93.1860   63.6910 H         1 STI         0.0000 
     51 H281       10.3400   94.1640   64.4500 H         1 STI         0.0000 
     52 H291       10.3440   95.7830   62.5950 H         1 STI         0.0000 
     53 H461       13.2755   91.9162   65.3825 H         1 STI         0.0000 
     54 H462       12.2856   93.0852   66.3207 H         1 STI         0.0000 
     55 H531       11.1140   91.4567   63.2331 H         1 STI         0.0000 
     56 H532       12.1524   90.2108   64.0052 H         1 STI         0.0000 
     57 H521        9.0808   90.3301   64.0787 H         1 STI         0.0000 
     58 H522       10.0879   89.1651   63.1540 H         1 STI         0.0000 
     59 H541        9.0798   87.2456   66.2031 H         1 STI         0.0000 
     60 H542        9.0365   87.2427   64.4074 H         1 STI         0.0000 
     61 H543        8.0199   88.4024   65.3284 H         1 STI         0.0000 
     62 H501        9.1279   90.2218   66.6468 H         1 STI         0.0000 
     63 H502       10.1567   88.9738   67.4281 H         1 STI         0.0000 
     64 H491       12.2064   90.0701   66.5571 H         1 STI         0.0000 
     65 H492       11.2306   91.2504   67.4960 H         1 STI         0.0000 
     66 H201       10.0887  102.8665   58.0670 H         1 STI         0.0000 
     67 H202       10.8574  102.1168   56.6269 H         1 STI         0.0000 
     68 H203       11.8633  103.0019   57.8234 H         1 STI         0.0000 
     69 H69        14.9632  100.8099   55.4136 H         1 STI         0.0000 
     70 H70        11.0856   99.2307   56.1792 H         1 STI         0.0000 
     71 H71        11.0061   88.2695   65.1892 H         1 STI         0.0000 
     72 H72        13.4357  101.4435   57.3561 H         1 STI         0.0000 
@<TRIPOS>BOND
     1    1    2 1    
     2    1    6 1    
     3    1   38 1    
     4    2    3 1    
     5    2   39 1    
     6    3    4 1    
     7    3    7 1    
     8    4    5 1    
     9    4   40 1    
    10    5    6 1    
    11    6   41 1    
    12    7    8 1    
    13    7   12 1    
    14    8    9 1    
    15    8   42 1    
    16    9   10 1    
    17    9   43 1    
    18   10   11 1    
    19   10   70 1    
    20   11   12 1    
    21   11   13 1    
    22   12   69 1    
    23   13   14 1    
    24   13   44 1    
    25   13   72 1    
    26   14   15 1    
    27   14   19 1    
    28   15   16 1    
    29   15   37 1    
    30   16   17 1    
    31   16   45 1    
    32   17   18 1    
    33   17   46 1    
    34   18   19 1    
    35   18   20 1    
    36   19   47 1    
    37   20   21 1    
    38   20   48 1    
    39   21   22 1    
    40   21   36 1    
    41   22   23 1    
    42   22   27 1    
    43   23   24 1    
    44   23   49 1    
    45   24   25 1    
    46   24   50 1    
    47   25   26 1    
    48   25   28 1    
    49   26   27 1    
    50   26   51 1    
    51   27   52 1    
    52   28   29 1    
    53   28   53 1    
    54   28   54 1    
    55   29   30 1    
    56   29   35 1    
    57   30   31 1    
    58   30   55 1    
    59   30   56 1    
    60   31   32 1    
    61   31   57 1    
    62   31   58 1    
    63   32   33 1    
    64   32   34 1    
    65   32   71 1    
    66   33   59 1    
    67   33   60 1    
    68   33   61 1    
    69   34   35 1    
    70   34   62 1    
    71   34   63 1    
    72   35   64 1    
    73   35   65 1    
    74   37   66 1    
    75   37   67 1    
    76   37   68 1    
@<TRIPOS>SUBSTRUCTURE
     1 STI         1 GROUP             0       ****    0 ROOT    
@<TRIPOS>MOLECULE
STI
70   74    1
SMALL
USER_CHARGES


@<TRIPOS>ATOM
      1 C1         16.3560  100.4060   50.6140 C.3       1 STI         0.0000 
      2 C6         15.2180  100.0120   51.4140 C.3       1 STI         0.0000 
      3 C5         15.0890  100.4530   52.7980 C.3       1 STI         0.0000 
      4 C4         16.1380  101.2980   53.3390 C.3       1 STI         0.0000 
      5 N3         17.2200  101.6600   52.5430 N.3       1 STI         0.0000 
      6 C2         17.3560  101.2430   51.2150 C.3       1 STI         0.0000 
      7 C7         13.9280  100.0780   53.6730 C.3       1 STI         0.0000 
      8 C12        12.7230   99.4700   53.1730 C.3       1 STI         0.0000 
      9 C11        11.7040   99.1720   54.1140 C.3       1 STI         0.0000 
     10 N10        11.8810   99.4640   55.4560 N.3       1 STI         0.0000 
     11 C9         13.0530  100.0500   55.9070 C.3       1 STI         0.0000 
     12 N8         14.0460  100.3450   55.0230 N.3       1 STI         0.0000 
     13 N13        13.2630  100.3620   57.2530 N.4       1 STI         0.0000 
     14 C14        12.3020  100.1090   58.2460 C.3       1 STI         0.0000 
     15 C19        11.1950  101.0400   58.4880 C.3       1 STI         0.0000 
     16 C18        10.2510  100.7220   59.5240 C.3       1 STI         0.0000 
     17 C17        10.3860   99.5200   60.3090 C.3       1 STI         0.0000 
     18 C16        11.4560   98.6100   60.0860 C.3       1 STI         0.0000 
     19 C15        12.4240   98.9210   59.0320 C.3       1 STI         0.0000 
     20 N21        11.5160   97.4360   60.9230 N.3       1 STI         0.0000 
     21 C22        12.4460   96.4150   60.9100 C.3       1 STI         0.0000 
     22 C23        12.4720   95.4420   62.0420 C.3       1 STI         0.0000 
     23 C25        13.6890   94.6960   62.3640 C.3       1 STI         0.0000 
     24 C26        13.6820   93.7490   63.4490 C.3       1 STI         0.0000 
     25 C27        12.4630   93.5460   64.2140 C.3       1 STI         0.0000 
     26 C28        11.2740   94.3010   63.8790 C.3       1 STI         0.0000 
     27 C29        11.2720   95.2300   62.8170 C.3       1 STI         0.0000 
     28 C46        12.3710   92.5420   65.3680 C.3       1 STI         0.0000 
     29 N48        11.2300   91.5790   65.3640 N.3       1 STI         0.0000 
     30 C53        11.2140   90.7780   64.0930 C.3       1 STI         0.0000 
     31 C52        10.0310   89.7760   64.0670 C.3       1 STI         0.0000 
     32 N51        10.0810   88.8580   65.2780 N.4       1 STI         0.0000 
     33 C54         8.9850   87.8750   65.3060 C.3       1 STI         0.0000 
     34 C50        10.0700   89.6590   66.5720 C.3       1 STI         0.0000 
     35 C49        11.2730   90.6520   66.5740 C.3       1 STI         0.0000 
     36 O29        13.2580   96.2310   60.0240 O.3       1 STI         0.0000 
     37 C20        10.9860  102.3510   57.6940 C.3       1 STI         0.0000 
     38 H11        16.4590  100.0740   49.5660 H         1 STI         0.0000 
     39 H61        14.4410   99.3690   50.9640 H         1 STI         0.0000 
     40 H41        16.1120  101.6720   54.3760 H         1 STI         0.0000 
     41 H21        18.2430  101.5700   50.6470 H         1 STI         0.0000 
     42 H121       12.5840   99.2390   52.1030 H         1 STI         0.0000 
     43 H111       10.7560   98.7040   53.7960 H         1 STI         0.0000 
     44 H131       14.1414   99.8135   57.6238 H         1 STI         0.0000 
     45 H181        9.4110  101.4100   59.7190 H         1 STI         0.0000 
     46 H171        9.6520   99.2900   61.1000 H         1 STI         0.0000 
     47 H151       13.2680   98.2410   58.8240 H         1 STI         0.0000 
     48 H211       10.7496   97.2709   61.6947 H         1 STI         0.0000 
     49 H251       14.6160   94.8480   61.7860 H         1 STI         0.0000 
     50 H261       14.5990   93.1860   63.6910 H         1 STI         0.0000 
     51 H281       10.3400   94.1640   64.4500 H         1 STI         0.0000 
     52 H291       10.3440   95.7830   62.5950 H         1 STI         0.0000 
     53 H461       13.2755   91.9162   65.3825 H         1 STI         0.0000 
     54 H462       12.2856   93.0852   66.3207 H         1 STI         0.0000 
     55 H531       11.1140   91.4567   63.2331 H         1 STI         0.0000 
     56 H532       12.1524   90.2108   64.0052 H         1 STI         0.0000 
     57 H521        9.0808   90.3301   64.0787 H         1 STI         0.0000 
     58 H522       10.0879   89.1651   63.1540 H         1 STI         0.0000 
     59 H541        9.0798   87.2456   66.2031 H         1 STI         0.0000 
     60 H542        9.0365   87.2427   64.4074 H         1 STI         0.0000 
     61 H543        8.0199   88.4024   65.3284 H         1 STI         0.0000 
     62 H501        9.1279   90.2218   66.6468 H         1 STI         0.0000 
     63 H502       10.1567   88.9738   67.4281 H         1 STI         0.0000 
     64 H491       12.2064   90.0701   66.5571 H         1 STI         0.0000 
     65 H492       11.2306   91.2504   67.4960 H         1 STI         0.0000 
     66 H201       10.0887  102.8665   58.0670 H         1 STI         0.0000 
     67 H202       10.8574  102.1168   56.6269 H         1 STI         0.0000 
     68 H203       11.8633  103.0019   57.8234 H         1 STI         0.0000 
     69 H69        13.4357  101.4435   57.3561 H         1 STI         0.0000 
     70 H70        11.0061   88.2695   65.1892 H         1 STI         0.0000 
@<TRIPOS>BOND
     1    1    2 1    
     2    1    6 1    
     3    1   38 1    
     4    2    3 1    
     5    2   39 1    
     6    3    4 1    
     7    3    7 1    
     8    4    5 1    
     9    4   40 1    
    10    5    6 1    
    11    6   41 1    
    12    7    8 1    
    13    7   12 1    
    14    8    9 1    
    15    8   42 1    
    16    9   10 1    
    17    9   43 1    
    18   10   11 1    
    19   11   12 1    
    20   11   13 1    
    21   13   14 1    
    22   13   44 1    
    23   13   69 1    
    24   14   15 1    
    25   14   19 1    
    26   15   16 1    
    27   15   37 1    
    28   16   17 1    
    29   16   45 1    
    30   17   18 1    
    31   17   46 1    
    32   18   19 1    
    33   18   20 1    
    34   19   47 1    
    35   20   21 1    
    36   20   48 1    
    37   21   22 1    
    38   21   36 1    
    39   22   23 1    
    40   22   27 1    
    41   23   24 1    
    42   23   49 1    
    43   24   25 1    
    44   24   50 1    
    45   25   26 1    
    46   25   28 1    
    47   26   27 1    
    48   26   51 1    
    49   27   52 1    
    50   28   29 1    
    51   28   53 1    
    52   28   54 1    
    53   29   30 1    
    54   29   35 1    
    55   30   31 1    
    56   30   55 1    
    57   30   56 1    
    58   31   32 1    
    59   31   57 1    
    60   31   58 1    
    61   32   33 1    
    62   32   34 1    
    63   32   70 1    
    64   33   59 1    
    65   33   60 1    
    66   33   61 1    
    67   34   35 1    
    68   34   62 1    
    69   34   63 1    
    70   35   64 1    
    71   35   65 1    
    72   37   66 1    
    73   37   67 1    
    74   37   68 1    
@<TRIPOS>SUBSTRUCTURE
     1 STI         1 GROUP             0       ****    0 ROOT    
@<TRIPOS>MOLECULE
STI
71   75    1
SMALL
USER_CHARGES


@<TRIPOS>ATOM
      1 C1         16.3560  100.4060   50.6140 C.3       1 STI         0.0000 
      2 C6         15.2180  100.0120   51.4140 C.3       1 STI         0.0000 
      3 C5         15.0890  100.4530   52.7980 C.3       1 STI         0.0000 
      4 C4         16.1380  101.2980   53.3390 C.3       1 STI         0.0000 
      5 N3         17.2200  101.6600   52.5430 N.3       1 STI         0.0000 
      6 C2         17.3560  101.2430   51.2150 C.3       1 STI         0.0000 
      7 C7         13.9280  100.0780   53.6730 C.3       1 STI         0.0000 
      8 C12        12.7230   99.4700   53.1730 C.3       1 STI         0.0000 
      9 C11        11.7040   99.1720   54.1140 C.3       1 STI         0.0000 
     10 N10        11.8810   99.4640   55.4560 N.3       1 STI         0.0000 
     11 C9         13.0530  100.0500   55.9070 C.3       1 STI         0.0000 
     12 N8         14.0460  100.3450   55.0230 N.3       1 STI         0.0000 
     13 N13        13.2630  100.3620   57.2530 N.4       1 STI         0.0000 
     14 C14        12.3020  100.1090   58.2460 C.3       1 STI         0.0000 
     15 C19        11.1950  101.0400   58.4880 C.3       1 STI         0.0000 
     16 C18        10.2510  100.7220   59.5240 C.3       1 STI         0.0000 
     17 C17        10.3860   99.5200   60.3090 C.3       1 STI         0.0000 
     18 C16        11.4560   98.6100   60.0860 C.3       1 STI         0.0000 
     19 C15        12.4240   98.9210   59.0320 C.3       1 STI         0.0000 
     20 N21        11.5160   97.4360   60.9230 N.3       1 STI         0.0000 
     21 C22        12.4460   96.4150   60.9100 C.3       1 STI         0.0000 
     22 C23        12.4720   95.4420   62.0420 C.3       1 STI         0.0000 
     23 C25        13.6890   94.6960   62.3640 C.3       1 STI         0.0000 
     24 C26        13.6820   93.7490   63.4490 C.3       1 STI         0.0000 
     25 C27        12.4630   93.5460   64.2140 C.3       1 STI         0.0000 
     26 C28        11.2740   94.3010   63.8790 C.3       1 STI         0.0000 
     27 C29        11.2720   95.2300   62.8170 C.3       1 STI         0.0000 
     28 C46        12.3710   92.5420   65.3680 C.3       1 STI         0.0000 
     29 N48        11.2300   91.5790   65.3640 N.3       1 STI         0.0000 
     30 C53        11.2140   90.7780   64.0930 C.3       1 STI         0.0000 
     31 C52        10.0310   89.7760   64.0670 C.3       1 STI         0.0000 
     32 N51        10.0810   88.8580   65.2780 N.4       1 STI         0.0000 
     33 C54         8.9850   87.8750   65.3060 C.3       1 STI         0.0000 
     34 C50        10.0700   89.6590   66.5720 C.3       1 STI         0.0000 
     35 C49        11.2730   90.6520   66.5740 C.3       1 STI         0.0000 
     36 O29        13.2580   96.2310   60.0240 O.3       1 STI         0.0000 
     37 C20        10.9860  102.3510   57.6940 C.3       1 STI         0.0000 
     38 H11        16.4590  100.0740   49.5660 H         1 STI         0.0000 
     39 H61        14.4410   99.3690   50.9640 H         1 STI         0.0000 
     40 H41        16.1120  101.6720   54.3760 H         1 STI         0.0000 
     41 H21        18.2430  101.5700   50.6470 H         1 STI         0.0000 
     42 H121       12.5840   99.2390   52.1030 H         1 STI         0.0000 
     43 H111       10.7560   98.7040   53.7960 H         1 STI         0.0000 
     44 H131       14.1414   99.8135   57.6238 H         1 STI         0.0000 
     45 H181        9.4110  101.4100   59.7190 H         1 STI         0.0000 
     46 H171        9.6520   99.2900   61.1000 H         1 STI         0.0000 
     47 H151       13.2680   98.2410   58.8240 H         1 STI         0.0000 
     48 H211       10.7496   97.2709   61.6947 H         1 STI         0.0000 
     49 H251       14.6160   94.8480   61.7860 H         1 STI         0.0000 
     50 H261       14.5990   93.1860   63.6910 H         1 STI         0.0000 
     51 H281       10.3400   94.1640   64.4500 H         1 STI         0.0000 
     52 H291       10.3440   95.7830   62.5950 H         1 STI         0.0000 
     53 H461       13.2755   91.9162   65.3825 H         1 STI         0.0000 
     54 H462       12.2856   93.0852   66.3207 H         1 STI         0.0000 
     55 H531       11.1140   91.4567   63.2331 H         1 STI         0.0000 
     56 H532       12.1524   90.2108   64.0052 H         1 STI         0.0000 
     57 H521        9.0808   90.3301   64.0787 H         1 STI         0.0000 
     58 H522       10.0879   89.1651   63.1540 H         1 STI         0.0000 
     59 H541        9.0798   87.2456   66.2031 H         1 STI         0.0000 
     60 H542        9.0365   87.2427   64.4074 H         1 STI         0.0000 
     61 H543        8.0199   88.4024   65.3284 H         1 STI         0.0000 
     62 H501        9.1279   90.2218   66.6468 H         1 STI         0.0000 
     63 H502       10.1567   88.9738   67.4281 H         1 STI         0.0000 
     64 H491       12.2064   90.0701   66.5571 H         1 STI         0.0000 
     65 H492       11.2306   91.2504   67.4960 H         1 STI         0.0000 
     66 H201       10.0887  102.8665   58.0670 H         1 STI         0.0000 
     67 H202       10.8574  102.1168   56.6269 H         1 STI         0.0000 
     68 H203       11.8633  103.0019   57.8234 H         1 STI         0.0000 
     69 H69        13.4357  101.4435   57.3561 H         1 STI         0.0000 
     70 H70        11.0061   88.2695   65.1892 H         1 STI         0.0000 
     71 H71        14.9632  100.8099   55.4136 H         1 STI         0.0000 
@<TRIPOS>BOND
     1    1    2 1    
     2    1    6 1    
     3    1   38 1    
     4    2    3 1    
     5    2   39 1    
     6    3    4 1    
     7    3    7 1    
     8    4    5 1    
     9    4   40 1    
    10    5    6 1    
    11    6   41 1    
    12    7    8 1    
    13    7   12 1    
    14    8    9 1    
    15    8   42 1    
    16    9   10 1    
    17    9   43 1    
    18   10   11 1    
    19   11   12 1    
    20   11   13 1    
    21   12   71 1    
    22   13   14 1    
    23   13   44 1    
    24   13   69 1    
    25   14   15 1    
    26   14   19 1    
    27   15   16 1    
    28   15   37 1    
    29   16   17 1    
    30   16   45 1    
    31   17   18 1    
    32   17   46 1    
    33   18   19 1    
    34   18   20 1    
    35   19   47 1    
    36   20   21 1    
    37   20   48 1    
    38   21   22 1    
    39   21   36 1    
    40   22   23 1    
    41   22   27 1    
    42   23   24 1    
    43   23   49 1    
    44   24   25 1    
    45   24   50 1    
    46   25   26 1    
    47   25   28 1    
    48   26   27 1    
    49   26   51 1    
    50   27   52 1    
    51   28   29 1    
    52   28   53 1    
    53   28   54 1    
    54   29   30 1    
    55   29   35 1    
    56   30   31 1    
    57   30   55 1    
    58   30   56 1    
    59   31   32 1    
    60   31   57 1    
    61   31   58 1    
    62   32   33 1    
    63   32   34 1    
    64   32   70 1    
    65   33   59 1    
    66   33   60 1    
    67   33   61 1    
    68   34   35 1    
    69   34   62 1    
    70   34   63 1    
    71   35   64 1    
    72   35   65 1    
    73   37   66 1    
    74   37   67 1    
    75   37   68 1    
@<TRIPOS>SUBSTRUCTURE
     1 STI         1 GROUP             0       ****    0 ROOT    
@<TRIPOS>MOLECULE
STI
70   74    1
SMALL
USER_CHARGES


@<TRIPOS>ATOM
      1 C1         16.3560  100.4060   50.6140 C.3       1 STI         0.0000 
      2 C6         15.2180  100.0120   51.4140 C.3       1 STI         0.0000 
      3 C5         15.0890  100.4530   52.7980 C.3       1 STI         0.0000 
      4 C4         16.1380  101.2980   53.3390 C.3       1 STI         0.0000 
      5 N3         17.2200  101.6600   52.5430 N.3       1 STI         0.0000 
      6 C2         17.3560  101.2430   51.2150 C.3       1 STI         0.0000 
      7 C7         13.9280  100.0780   53.6730 C.3       1 STI         0.0000 
      8 C12        12.7230   99.4700   53.1730 C.3       1 STI         0.0000 
      9 C11        11.7040   99.1720   54.1140 C.3       1 STI         0.0000 
     10 N10        11.8810   99.4640   55.4560 N.3       1 STI         0.0000 
     11 C9         13.0530  100.0500   55.9070 C.3       1 STI         0.0000 
     12 N8         14.0460  100.3450   55.0230 N.3       1 STI         0.0000 
     13 N13        13.2630  100.3620   57.2530 N.4       1 STI         0.0000 
     14 C14        12.3020  100.1090   58.2460 C.3       1 STI         0.0000 
     15 C19        11.1950  101.0400   58.4880 C.3       1 STI         0.0000 
     16 C18        10.2510  100.7220   59.5240 C.3       1 STI         0.0000 
     17 C17        10.3860   99.5200   60.3090 C.3       1 STI         0.0000 
     18 C16        11.4560   98.6100   60.0860 C.3       1 STI         0.0000 
     19 C15        12.4240   98.9210   59.0320 C.3       1 STI         0.0000 
     20 N21        11.5160   97.4360   60.9230 N.3       1 STI         0.0000 
     21 C22        12.4460   96.4150   60.9100 C.3       1 STI         0.0000 
     22 C23        12.4720   95.4420   62.0420 C.3       1 STI         0.0000 
     23 C25        13.6890   94.6960   62.3640 C.3       1 STI         0.0000 
     24 C26        13.6820   93.7490   63.4490 C.3       1 STI         0.0000 
     25 C27        12.4630   93.5460   64.2140 C.3       1 STI         0.0000 
     26 C28        11.2740   94.3010   63.8790 C.3       1 STI         0.0000 
     27 C29        11.2720   95.2300   62.8170 C.3       1 STI         0.0000 
     28 C46        12.3710   92.5420   65.3680 C.3       1 STI         0.0000 
     29 N48        11.2300   91.5790   65.3640 N.4       1 STI         0.0000 
     30 C53        11.2140   90.7780   64.0930 C.3       1 STI         0.0000 
     31 C52        10.0310   89.7760   64.0670 C.3       1 STI         0.0000 
     32 N51        10.0810   88.8580   65.2780 N.3       1 STI         0.0000 
     33 C54         8.9850   87.8750   65.3060 C.3       1 STI         0.0000 
     34 C50        10.0700   89.6590   66.5720 C.3       1 STI         0.0000 
     35 C49        11.2730   90.6520   66.5740 C.3       1 STI         0.0000 
     36 O29        13.2580   96.2310   60.0240 O.3       1 STI         0.0000 
     37 C20        10.9860  102.3510   57.6940 C.3       1 STI         0.0000 
     38 H11        16.4590  100.0740   49.5660 H         1 STI         0.0000 
     39 H61        14.4410   99.3690   50.9640 H         1 STI         0.0000 
     40 H41        16.1120  101.6720   54.3760 H         1 STI         0.0000 
     41 H21        18.2430  101.5700   50.6470 H         1 STI         0.0000 
     42 H121       12.5840   99.2390   52.1030 H         1 STI         0.0000 
     43 H111       10.7560   98.7040   53.7960 H         1 STI         0.0000 
     44 H131       14.1414   99.8135   57.6238 H         1 STI         0.0000 
     45 H181        9.4110  101.4100   59.7190 H         1 STI         0.0000 
     46 H171        9.6520   99.2900   61.1000 H         1 STI         0.0000 
     47 H151       13.2680   98.2410   58.8240 H         1 STI         0.0000 
     48 H211       10.7496   97.2709   61.6947 H         1 STI         0.0000 
     49 H251       14.6160   94.8480   61.7860 H         1 STI         0.0000 
     50 H261       14.5990   93.1860   63.6910 H         1 STI         0.0000 
     51 H281       10.3400   94.1640   64.4500 H         1 STI         0.0000 
     52 H291       10.3440   95.7830   62.5950 H         1 STI         0.0000 
     53 H461       13.2755   91.9162   65.3825 H         1 STI         0.0000 
     54 H462       12.2856   93.0852   66.3207 H         1 STI         0.0000 
     55 H531       11.1140   91.4567   63.2331 H         1 STI         0.0000 
     56 H532       12.1524   90.2108   64.0052 H         1 STI         0.0000 
     57 H521        9.0808   90.3301   64.0787 H         1 STI         0.0000 
     58 H522       10.0879   89.1651   63.1540 H         1 STI         0.0000 
     59 H541        9.0798   87.2456   66.2031 H         1 STI         0.0000 
     60 H542        9.0365   87.2427   64.4074 H         1 STI         0.0000 
     61 H543        8.0199   88.4024   65.3284 H         1 STI         0.0000 
     62 H501        9.1279   90.2218   66.6468 H         1 STI         0.0000 
     63 H502       10.1567   88.9738   67.4281 H         1 STI         0.0000 
     64 H491       12.2064   90.0701   66.5571 H         1 STI         0.0000 
     65 H492       11.2306   91.2504   67.4960 H         1 STI         0.0000 
     66 H201       10.0887  102.8665   58.0670 H         1 STI         0.0000 
     67 H202       10.8574  102.1168   56.6269 H         1 STI         0.0000 
     68 H203       11.8633  103.0019   57.8234 H         1 STI         0.0000 
     69 H69        13.4357  101.4435   57.3561 H         1 STI         0.0000 
     70 H70        10.3106   92.1812   65.4089 H         1 STI         0.0000 
@<TRIPOS>BOND
     1    1    2 1    
     2    1    6 1    
     3    1   38 1    
     4    2    3 1    
     5    2   39 1    
     6    3    4 1    
     7    3    7 1    
     8    4    5 1    
     9    4   40 1    
    10    5    6 1    
    11    6   41 1    
    12    7    8 1    
    13    7   12 1    
    14    8    9 1    
    15    8   42 1    
    16    9   10 1    
    17    9   43 1    
    18   10   11 1    
    19   11   12 1    
    20   11   13 1    
    21   13   14 1    
    22   13   44 1    
    23   13   69 1    
    24   14   15 1    
    25   14   19 1    
    26   15   16 1    
    27   15   37 1    
    28   16   17 1    
    29   16   45 1    
    30   17   18 1    
    31   17   46 1    
    32   18   19 1    
    33   18   20 1    
    34   19   47 1    
    35   20   21 1    
    36   20   48 1    
    37   21   22 1    
    38   21   36 1    
    39   22   23 1    
    40   22   27 1    
    41   23   24 1    
    42   23   49 1    
    43   24   25 1    
    44   24   50 1    
    45   25   26 1    
    46   25   28 1    
    47   26   27 1    
    48   26   51 1    
    49   27   52 1    
    50   28   29 1    
    51   28   53 1    
    52   28   54 1    
    53   29   30 1    
    54   29   35 1    
    55   29   70 1    
    56   30   31 1    
    57   30   55 1    
    58   30   56 1    
    59   31   32 1    
    60   31   57 1    
    61   31   58 1    
    62   32   33 1    
    63   32   34 1    
    64   33   59 1    
    65   33   60 1    
    66   33   61 1    
    67   34   35 1    
    68   34   62 1    
    69   34   63 1    
    70   35   64 1    
    71   35   65 1    
    72   37   66 1    
    73   37   67 1    
    74   37   68 1    
@<TRIPOS>SUBSTRUCTURE
     1 STI         1 GROUP             0       ****    0 ROOT    
@<TRIPOS>MOLECULE
STI
72   76    1
SMALL
USER_CHARGES


@<TRIPOS>ATOM
      1 C1         16.3560  100.4060   50.6140 C.3       1 STI         0.0000 
      2 C6         15.2180  100.0120   51.4140 C.3       1 STI         0.0000 
      3 C5         15.0890  100.4530   52.7980 C.3       1 STI         0.0000 
      4 C4         16.1380  101.2980   53.3390 C.3       1 STI         0.0000 
      5 N3         17.2200  101.6600   52.5430 N.3       1 STI         0.0000 
      6 C2         17.3560  101.2430   51.2150 C.3       1 STI         0.0000 
      7 C7         13.9280  100.0780   53.6730 C.3       1 STI         0.0000 
      8 C12        12.7230   99.4700   53.1730 C.3       1 STI         0.0000 
      9 C11        11.7040   99.1720   54.1140 C.3       1 STI         0.0000 
     10 N10        11.8810   99.4640   55.4560 N.3       1 STI         0.0000 
     11 C9         13.0530  100.0500   55.9070 C.3       1 STI         0.0000 
     12 N8         14.0460  100.3450   55.0230 N.3       1 STI         0.0000 
     13 N13        13.2630  100.3620   57.2530 N.4       1 STI         0.0000 
     14 C14        12.3020  100.1090   58.2460 C.3       1 STI         0.0000 
     15 C19        11.1950  101.0400   58.4880 C.3       1 STI         0.0000 
     16 C18        10.2510  100.7220   59.5240 C.3       1 STI         0.0000 
     17 C17        10.3860   99.5200   60.3090 C.3       1 STI         0.0000 
     18 C16        11.4560   98.6100   60.0860 C.3       1 STI         0.0000 
     19 C15        12.4240   98.9210   59.0320 C.3       1 STI         0.0000 
     20 N21        11.5160   97.4360   60.9230 N.3       1 STI         0.0000 
     21 C22        12.4460   96.4150   60.9100 C.3       1 STI         0.0000 
     22 C23        12.4720   95.4420   62.0420 C.3       1 STI         0.0000 
     23 C25        13.6890   94.6960   62.3640 C.3       1 STI         0.0000 
     24 C26        13.6820   93.7490   63.4490 C.3       1 STI         0.0000 
     25 C27        12.4630   93.5460   64.2140 C.3       1 STI         0.0000 
     26 C28        11.2740   94.3010   63.8790 C.3       1 STI         0.0000 
     27 C29        11.2720   95.2300   62.8170 C.3       1 STI         0.0000 
     28 C46        12.3710   92.5420   65.3680 C.3       1 STI         0.0000 
     29 N48        11.2300   91.5790   65.3640 N.4       1 STI         0.0000 
     30 C53        11.2140   90.7780   64.0930 C.3       1 STI         0.0000 
     31 C52        10.0310   89.7760   64.0670 C.3       1 STI         0.0000 
     32 N51        10.0810   88.8580   65.2780 N.3       1 STI         0.0000 
     33 C54         8.9850   87.8750   65.3060 C.3       1 STI         0.0000 
     34 C50        10.0700   89.6590   66.5720 C.3       1 STI         0.0000 
     35 C49        11.2730   90.6520   66.5740 C.3       1 STI         0.0000 
     36 O29        13.2580   96.2310   60.0240 O.3       1 STI         0.0000 
     37 C20        10.9860  102.3510   57.6940 C.3       1 STI         0.0000 
     38 H11        16.4590  100.0740   49.5660 H         1 STI         0.0000 
     39 H61        14.4410   99.3690   50.9640 H         1 STI         0.0000 
     40 H41        16.1120  101.6720   54.3760 H         1 STI         0.0000 
     41 H21        18.2430  101.5700   50.6470 H         1 STI         0.0000 
     42 H121       12.5840   99.2390   52.1030 H         1 STI         0.0000 
     43 H111       10.7560   98.7040   53.7960 H         1 STI         0.0000 
     44 H131       14.1414   99.8135   57.6238 H         1 STI         0.0000 
     45 H181        9.4110  101.4100   59.7190 H         1 STI         0.0000 
     46 H171        9.6520   99.2900   61.1000 H         1 STI         0.0000 
     47 H151       13.2680   98.2410   58.8240 H         1 STI         0.0000 
     48 H211       10.7496   97.2709   61.6947 H         1 STI         0.0000 
     49 H251       14.6160   94.8480   61.7860 H         1 STI         0.0000 
     50 H261       14.5990   93.1860   63.6910 H         1 STI         0.0000 
     51 H281       10.3400   94.1640   64.4500 H         1 STI         0.0000 
     52 H291       10.3440   95.7830   62.5950 H         1 STI         0.0000 
     53 H461       13.2755   91.9162   65.3825 H         1 STI         0.0000 
     54 H462       12.2856   93.0852   66.3207 H         1 STI         0.0000 
     55 H531       11.1140   91.4567   63.2331 H         1 STI         0.0000 
     56 H532       12.1524   90.2108   64.0052 H         1 STI         0.0000 
     57 H521        9.0808   90.3301   64.0787 H         1 STI         0.0000 
     58 H522       10.0879   89.1651   63.1540 H         1 STI         0.0000 
     59 H541        9.0798   87.2456   66.2031 H         1 STI         0.0000 
     60 H542        9.0365   87.2427   64.4074 H         1 STI         0.0000 
     61 H543        8.0199   88.4024   65.3284 H         1 STI         0.0000 
     62 H501        9.1279   90.2218   66.6468 H         1 STI         0.0000 
     63 H502       10.1567   88.9738   67.4281 H         1 STI         0.0000 
     64 H491       12.2064   90.0701   66.5571 H         1 STI         0.0000 
     65 H492       11.2306   91.2504   67.4960 H         1 STI         0.0000 
     66 H201       10.0887  102.8665   58.0670 H         1 STI         0.0000 
     67 H202       10.8574  102.1168   56.6269 H         1 STI         0.0000 
     68 H203       11.8633  103.0019   57.8234 H         1 STI         0.0000 
     69 H69        14.9632  100.8099   55.4136 H         1 STI         0.0000 
     70 H70        11.0856   99.2307   56.1792 H         1 STI         0.0000 
     71 H71        10.3106   92.1812   65.4089 H         1 STI         0.0000 
     72 H72        13.4357  101.4435   57.3561 H         1 STI         0.0000 
@<TRIPOS>BOND
     1    1    2 1    
     2    1    6 1    
     3    1   38 1    
     4    2    3 1    
     5    2   39 1    
     6    3    4 1    
     7    3    7 1    
     8    4    5 1    
     9    4   40 1    
    10    5    6 1    
    11    6   41 1    
    12    7    8 1    
    13    7   12 1    
    14    8    9 1    
    15    8   42 1    
    16    9   10 1    
    17    9   43 1    
    18   10   11 1    
    19   10   70 1    
    20   11   12 1    
    21   11   13 1    
    22   12   69 1    
    23   13   14 1    
    24   13   44 1    
    25   13   72 1    
    26   14   15 1    
    27   14   19 1    
    28   15   16 1    
    29   15   37 1    
    30   16   17 1    
    31   16   45 1    
    32   17   18 1    
    33   17   46 1    
    34   18   19 1    
    35   18   20 1    
    36   19   47 1    
    37   20   21 1    
    38   20   48 1    
    39   21   22 1    
    40   21   36 1    
    41   22   23 1    
    42   22   27 1    
    43   23   24 1    
    44   23   49 1    
    45   24   25 1    
    46   24   50 1    
    47   25   26 1    
    48   25   28 1    
    49   26   27 1    
    50   26   51 1    
    51   27   52 1    
    52   28   29 1    
    53   28   53 1    
    54   28   54 1    
    55   29   30 1    
    56   29   35 1    
    57   29   71 1    
    58   30   31 1    
    59   30   55 1    
    60   30   56 1    
    61   31   32 1    
    62   31   57 1    
    63   31   58 1    
    64   32   33 1    
    65   32   34 1    
    66   33   59 1    
    67   33   60 1    
    68   33   61 1    
    69   34   35 1    
    70   34   62 1    
    71   34   63 1    
    72   35   64 1    
    73   35   65 1    
    74   37   66 1    
    75   37   67 1    
    76   37   68 1    
@<TRIPOS>SUBSTRUCTURE
     1 STI         1 GROUP             0       ****    0 ROOT    
@<TRIPOS>MOLECULE
STI
71   75    1
SMALL
USER_CHARGES


@<TRIPOS>ATOM
      1 C1         16.3560  100.4060   50.6140 C.3       1 STI         0.0000 
      2 C6         15.2180  100.0120   51.4140 C.3       1 STI         0.0000 
      3 C5         15.0890  100.4530   52.7980 C.3       1 STI         0.0000 
      4 C4         16.1380  101.2980   53.3390 C.3       1 STI         0.0000 
      5 N3         17.2200  101.6600   52.5430 N.3       1 STI         0.0000 
      6 C2         17.3560  101.2430   51.2150 C.3       1 STI         0.0000 
      7 C7         13.9280  100.0780   53.6730 C.3       1 STI         0.0000 
      8 C12        12.7230   99.4700   53.1730 C.3       1 STI         0.0000 
      9 C11        11.7040   99.1720   54.1140 C.3       1 STI         0.0000 
     10 N10        11.8810   99.4640   55.4560 N.3       1 STI         0.0000 
     11 C9         13.0530  100.0500   55.9070 C.3       1 STI         0.0000 
     12 N8         14.0460  100.3450   55.0230 N.3       1 STI         0.0000 
     13 N13        13.2630  100.3620   57.2530 N.4       1 STI         0.0000 
     14 C14        12.3020  100.1090   58.2460 C.3       1 STI         0.0000 
     15 C19        11.1950  101.0400   58.4880 C.3       1 STI         0.0000 
     16 C18        10.2510  100.7220   59.5240 C.3       1 STI         0.0000 
     17 C17        10.3860   99.5200   60.3090 C.3       1 STI         0.0000 
     18 C16        11.4560   98.6100   60.0860 C.3       1 STI         0.0000 
     19 C15        12.4240   98.9210   59.0320 C.3       1 STI         0.0000 
     20 N21        11.5160   97.4360   60.9230 N.3       1 STI         0.0000 
     21 C22        12.4460   96.4150   60.9100 C.3       1 STI         0.0000 
     22 C23        12.4720   95.4420   62.0420 C.3       1 STI         0.0000 
     23 C25        13.6890   94.6960   62.3640 C.3       1 STI         0.0000 
     24 C26        13.6820   93.7490   63.4490 C.3       1 STI         0.0000 
     25 C27        12.4630   93.5460   64.2140 C.3       1 STI         0.0000 
     26 C28        11.2740   94.3010   63.8790 C.3       1 STI         0.0000 
     27 C29        11.2720   95.2300   62.8170 C.3       1 STI         0.0000 
     28 C46        12.3710   92.5420   65.3680 C.3       1 STI         0.0000 
     29 N48        11.2300   91.5790   65.3640 N.4       1 STI         0.0000 
     30 C53        11.2140   90.7780   64.0930 C.3       1 STI         0.0000 
     31 C52        10.0310   89.7760   64.0670 C.3       1 STI         0.0000 
     32 N51        10.0810   88.8580   65.2780 N.3       1 STI         0.0000 
     33 C54         8.9850   87.8750   65.3060 C.3       1 STI         0.0000 
     34 C50        10.0700   89.6590   66.5720 C.3       1 STI         0.0000 
     35 C49        11.2730   90.6520   66.5740 C.3       1 STI         0.0000 
     36 O29        13.2580   96.2310   60.0240 O.3       1 STI         0.0000 
     37 C20        10.9860  102.3510   57.6940 C.3       1 STI         0.0000 
     38 H11        16.4590  100.0740   49.5660 H         1 STI         0.0000 
     39 H61        14.4410   99.3690   50.9640 H         1 STI         0.0000 
     40 H41        16.1120  101.6720   54.3760 H         1 STI         0.0000 
     41 H21        18.2430  101.5700   50.6470 H         1 STI         0.0000 
     42 H121       12.5840   99.2390   52.1030 H         1 STI         0.0000 
     43 H111       10.7560   98.7040   53.7960 H         1 STI         0.0000 
     44 H131       14.1414   99.8135   57.6238 H         1 STI         0.0000 
     45 H181        9.4110  101.4100   59.7190 H         1 STI         0.0000 
     46 H171        9.6520   99.2900   61.1000 H         1 STI         0.0000 
     47 H151       13.2680   98.2410   58.8240 H         1 STI         0.0000 
     48 H211       10.7496   97.2709   61.6947 H         1 STI         0.0000 
     49 H251       14.6160   94.8480   61.7860 H         1 STI         0.0000 
     50 H261       14.5990   93.1860   63.6910 H         1 STI         0.0000 
     51 H281       10.3400   94.1640   64.4500 H         1 STI         0.0000 
     52 H291       10.3440   95.7830   62.5950 H         1 STI         0.0000 
     53 H461       13.2755   91.9162   65.3825 H         1 STI         0.0000 
     54 H462       12.2856   93.0852   66.3207 H         1 STI         0.0000 
     55 H531       11.1140   91.4567   63.2331 H         1 STI         0.0000 
     56 H532       12.1524   90.2108   64.0052 H         1 STI         0.0000 
     57 H521        9.0808   90.3301   64.0787 H         1 STI         0.0000 
     58 H522       10.0879   89.1651   63.1540 H         1 STI         0.0000 
     59 H541        9.0798   87.2456   66.2031 H         1 STI         0.0000 
     60 H542        9.0365   87.2427   64.4074 H         1 STI         0.0000 
     61 H543        8.0199   88.4024   65.3284 H         1 STI         0.0000 
     62 H501        9.1279   90.2218   66.6468 H         1 STI         0.0000 
     63 H502       10.1567   88.9738   67.4281 H         1 STI         0.0000 
     64 H491       12.2064   90.0701   66.5571 H         1 STI         0.0000 
     65 H492       11.2306   91.2504   67.4960 H         1 STI         0.0000 
     66 H201       10.0887  102.8665   58.0670 H         1 STI         0.0000 
     67 H202       10.8574  102.1168   56.6269 H         1 STI         0.0000 
     68 H203       11.8633  103.0019   57.8234 H         1 STI         0.0000 
     69 H69        13.4357  101.4435   57.3561 H         1 STI         0.0000 
     70 H70        10.3106   92.1812   65.4089 H         1 STI         0.0000 
     71 H71        14.9632  100.8099   55.4136 H         1 STI         0.0000 
@<TRIPOS>BOND
     1    1    2 1    
     2    1    6 1    
     3    1   38 1    
     4    2    3 1    
     5    2   39 1    
     6    3    4 1    
     7    3    7 1    
     8    4    5 1    
     9    4   40 1    
    10    5    6 1    
    11    6   41 1    
    12    7    8 1    
    13    7   12 1    
    14    8    9 1    
    15    8   42 1    
    16    9   10 1    
    17    9   43 1    
    18   10   11 1    
    19   11   12 1    
    20   11   13 1    
    21   12   71 1    
    22   13   14 1    
    23   13   44 1    
    24   13   69 1    
    25   14   15 1    
    26   14   19 1    
    27   15   16 1    
    28   15   37 1    
    29   16   17 1    
    30   16   45 1    
    31   17   18 1    
    32   17   46 1    
    33   18   19 1    
    34   18   20 1    
    35   19   47 1    
    36   20   21 1    
    37   20   48 1    
    38   21   22 1    
    39   21   36 1    
    40   22   23 1    
    41   22   27 1    
    42   23   24 1    
    43   23   49 1    
    44   24   25 1    
    45   24   50 1    
    46   25   26 1    
    47   25   28 1    
    48   26   27 1    
    49   26   51 1    
    50   27   52 1    
    51   28   29 1    
    52   28   53 1    
    53   28   54 1    
    54   29   30 1    
    55   29   35 1    
    56   29   70 1    
    57   30   31 1    
    58   30   55 1    
    59   30   56 1    
    60   31   32 1    
    61   31   57 1    
    62   31   58 1    
    63   32   33 1    
    64   32   34 1    
    65   33   59 1    
    66   33   60 1    
    67   33   61 1    
    68   34   35 1    
    69   34   62 1    
    70   34   63 1    
    71   35   64 1    
    72   35   65 1    
    73   37   66 1    
    74   37   67 1    
    75   37   68 1    
@<TRIPOS>SUBSTRUCTURE
     1 STI         1 GROUP             0       ****    0 ROOT    
@<TRIPOS>MOLECULE
STI
71   75    1
SMALL
USER_CHARGES


@<TRIPOS>ATOM
      1 C1         16.3560  100.4060   50.6140 C.3       1 STI         0.0000 
      2 C6         15.2180  100.0120   51.4140 C.3       1 STI         0.0000 
      3 C5         15.0890  100.4530   52.7980 C.3       1 STI         0.0000 
      4 C4         16.1380  101.2980   53.3390 C.3       1 STI         0.0000 
      5 N3         17.2200  101.6600   52.5430 N.3       1 STI         0.0000 
      6 C2         17.3560  101.2430   51.2150 C.3       1 STI         0.0000 
      7 C7         13.9280  100.0780   53.6730 C.3       1 STI         0.0000 
      8 C12        12.7230   99.4700   53.1730 C.3       1 STI         0.0000 
      9 C11        11.7040   99.1720   54.1140 C.3       1 STI         0.0000 
     10 N10        11.8810   99.4640   55.4560 N.3       1 STI         0.0000 
     11 C9         13.0530  100.0500   55.9070 C.3       1 STI         0.0000 
     12 N8         14.0460  100.3450   55.0230 N.3       1 STI         0.0000 
     13 N13        13.2630  100.3620   57.2530 N.4       1 STI         0.0000 
     14 C14        12.3020  100.1090   58.2460 C.3       1 STI         0.0000 
     15 C19        11.1950  101.0400   58.4880 C.3       1 STI         0.0000 
     16 C18        10.2510  100.7220   59.5240 C.3       1 STI         0.0000 
     17 C17        10.3860   99.5200   60.3090 C.3       1 STI         0.0000 
     18 C16        11.4560   98.6100   60.0860 C.3       1 STI         0.0000 
     19 C15        12.4240   98.9210   59.0320 C.3       1 STI         0.0000 
     20 N21        11.5160   97.4360   60.9230 N.3       1 STI         0.0000 
     21 C22        12.4460   96.4150   60.9100 C.3       1 STI         0.0000 
     22 C23        12.4720   95.4420   62.0420 C.3       1 STI         0.0000 
     23 C25        13.6890   94.6960   62.3640 C.3       1 STI         0.0000 
     24 C26        13.6820   93.7490   63.4490 C.3       1 STI         0.0000 
     25 C27        12.4630   93.5460   64.2140 C.3       1 STI         0.0000 
     26 C28        11.2740   94.3010   63.8790 C.3       1 STI         0.0000 
     27 C29        11.2720   95.2300   62.8170 C.3       1 STI         0.0000 
     28 C46        12.3710   92.5420   65.3680 C.3       1 STI         0.0000 
     29 N48        11.2300   91.5790   65.3640 N.3       1 STI         0.0000 
     30 C53        11.2140   90.7780   64.0930 C.3       1 STI         0.0000 
     31 C52        10.0310   89.7760   64.0670 C.3       1 STI         0.0000 
     32 N51        10.0810   88.8580   65.2780 N.4       1 STI         0.0000 
     33 C54         8.9850   87.8750   65.3060 C.3       1 STI         0.0000 
     34 C50        10.0700   89.6590   66.5720 C.3       1 STI         0.0000 
     35 C49        11.2730   90.6520   66.5740 C.3       1 STI         0.0000 
     36 O29        13.2580   96.2310   60.0240 O.3       1 STI         0.0000 
     37 C20        10.9860  102.3510   57.6940 C.3       1 STI         0.0000 
     38 H11        16.4590  100.0740   49.5660 H         1 STI         0.0000 
     39 H61        14.4410   99.3690   50.9640 H         1 STI         0.0000 
     40 H41        16.1120  101.6720   54.3760 H         1 STI         0.0000 
     41 H21        18.2430  101.5700   50.6470 H         1 STI         0.0000 
     42 H121       12.5840   99.2390   52.1030 H         1 STI         0.0000 
     43 H111       10.7560   98.7040   53.7960 H         1 STI         0.0000 
     44 H131       14.1414   99.8135   57.6238 H         1 STI         0.0000 
     45 H181        9.4110  101.4100   59.7190 H         1 STI         0.0000 
     46 H171        9.6520   99.2900   61.1000 H         1 STI         0.0000 
     47 H151       13.2680   98.2410   58.8240 H         1 STI         0.0000 
     48 H211       10.7496   97.2709   61.6947 H         1 STI         0.0000 
     49 H251       14.6160   94.8480   61.7860 H         1 STI         0.0000 
     50 H261       14.5990   93.1860   63.6910 H         1 STI         0.0000 
     51 H281       10.3400   94.1640   64.4500 H         1 STI         0.0000 
     52 H291       10.3440   95.7830   62.5950 H         1 STI         0.0000 
     53 H461       13.2755   91.9162   65.3825 H         1 STI         0.0000 
     54 H462       12.2856   93.0852   66.3207 H         1 STI         0.0000 
     55 H531       11.1140   91.4567   63.2331 H         1 STI         0.0000 
     56 H532       12.1524   90.2108   64.0052 H         1 STI         0.0000 
     57 H521        9.0808   90.3301   64.0787 H         1 STI         0.0000 
     58 H522       10.0879   89.1651   63.1540 H         1 STI         0.0000 
     59 H541        9.0798   87.2456   66.2031 H         1 STI         0.0000 
     60 H542        9.0365   87.2427   64.4074 H         1 STI         0.0000 
     61 H543        8.0199   88.4024   65.3284 H         1 STI         0.0000 
     62 H501        9.1279   90.2218   66.6468 H         1 STI         0.0000 
     63 H502       10.1567   88.9738   67.4281 H         1 STI         0.0000 
     64 H491       12.2064   90.0701   66.5571 H         1 STI         0.0000 
     65 H492       11.2306   91.2504   67.4960 H         1 STI         0.0000 
     66 H201       10.0887  102.8665   58.0670 H         1 STI         0.0000 
     67 H202       10.8574  102.1168   56.6269 H         1 STI         0.0000 
     68 H203       11.8633  103.0019   57.8234 H         1 STI         0.0000 
     69 H69        13.4357  101.4435   57.3561 H         1 STI         0.0000 
     70 H70        11.0061   88.2695   65.1892 H         1 STI         0.0000 
     71 H71        11.0856   99.2307   56.1792 H         1 STI         0.0000 
@<TRIPOS>BOND
     1    1    2 1    
     2    1    6 1    
     3    1   38 1    
     4    2    3 1    
     5    2   39 1    
     6    3    4 1    
     7    3    7 1    
     8    4    5 1    
     9    4   40 1    
    10    5    6 1    
    11    6   41 1    
    12    7    8 1    
    13    7   12 1    
    14    8    9 1    
    15    8   42 1    
    16    9   10 1    
    17    9   43 1    
    18   10   11 1    
    19   10   71 1    
    20   11   12 1    
    21   11   13 1    
    22   13   14 1    
    23   13   44 1    
    24   13   69 1    
    25   14   15 1    
    26   14   19 1    
    27   15   16 1    
    28   15   37 1    
    29   16   17 1    
    30   16   45 1    
    31   17   18 1    
    32   17   46 1    
    33   18   19 1    
    34   18   20 1    
    35   19   47 1    
    36   20   21 1    
    37   20   48 1    
    38   21   22 1    
    39   21   36 1    
    40   22   23 1    
    41   22   27 1    
    42   23   24 1    
    43   23   49 1    
    44   24   25 1    
    45   24   50 1    
    46   25   26 1    
    47   25   28 1    
    48   26   27 1    
    49   26   51 1    
    50   27   52 1    
    51   28   29 1    
    52   28   53 1    
    53   28   54 1    
    54   29   30 1    
    55   29   35 1    
    56   30   31 1    
    57   30   55 1    
    58   30   56 1    
    59   31   32 1    
    60   31   57 1    
    61   31   58 1    
    62   32   33 1    
    63   32   34 1    
    64   32   70 1    
    65   33   59 1    
    66   33   60 1    
    67   33   61 1    
    68   34   35 1    
    69   34   62 1    
    70   34   63 1    
    71   35   64 1    
    72   35   65 1    
    73   37   66 1    
    74   37   67 1    
    75   37   68 1    
@<TRIPOS>SUBSTRUCTURE
     1 STI         1 GROUP             0       ****    0 ROOT    
@<TRIPOS>MOLECULE
STI
71   75    1
SMALL
USER_CHARGES


@<TRIPOS>ATOM
      1 C1         16.3560  100.4060   50.6140 C.3       1 STI         0.0000 
      2 C6         15.2180  100.0120   51.4140 C.3       1 STI         0.0000 
      3 C5         15.0890  100.4530   52.7980 C.3       1 STI         0.0000 
      4 C4         16.1380  101.2980   53.3390 C.3       1 STI         0.0000 
      5 N3         17.2200  101.6600   52.5430 N.3       1 STI         0.0000 
      6 C2         17.3560  101.2430   51.2150 C.3       1 STI         0.0000 
      7 C7         13.9280  100.0780   53.6730 C.3       1 STI         0.0000 
      8 C12        12.7230   99.4700   53.1730 C.3       1 STI         0.0000 
      9 C11        11.7040   99.1720   54.1140 C.3       1 STI         0.0000 
     10 N10        11.8810   99.4640   55.4560 N.3       1 STI         0.0000 
     11 C9         13.0530  100.0500   55.9070 C.3       1 STI         0.0000 
     12 N8         14.0460  100.3450   55.0230 N.3       1 STI         0.0000 
     13 N13        13.2630  100.3620   57.2530 N.4       1 STI         0.0000 
     14 C14        12.3020  100.1090   58.2460 C.3       1 STI         0.0000 
     15 C19        11.1950  101.0400   58.4880 C.3       1 STI         0.0000 
     16 C18        10.2510  100.7220   59.5240 C.3       1 STI         0.0000 
     17 C17        10.3860   99.5200   60.3090 C.3       1 STI         0.0000 
     18 C16        11.4560   98.6100   60.0860 C.3       1 STI         0.0000 
     19 C15        12.4240   98.9210   59.0320 C.3       1 STI         0.0000 
     20 N21        11.5160   97.4360   60.9230 N.3       1 STI         0.0000 
     21 C22        12.4460   96.4150   60.9100 C.3       1 STI         0.0000 
     22 C23        12.4720   95.4420   62.0420 C.3       1 STI         0.0000 
     23 C25        13.6890   94.6960   62.3640 C.3       1 STI         0.0000 
     24 C26        13.6820   93.7490   63.4490 C.3       1 STI         0.0000 
     25 C27        12.4630   93.5460   64.2140 C.3       1 STI         0.0000 
     26 C28        11.2740   94.3010   63.8790 C.3       1 STI         0.0000 
     27 C29        11.2720   95.2300   62.8170 C.3       1 STI         0.0000 
     28 C46        12.3710   92.5420   65.3680 C.3       1 STI         0.0000 
     29 N48        11.2300   91.5790   65.3640 N.3       1 STI         0.0000 
     30 C53        11.2140   90.7780   64.0930 C.3       1 STI         0.0000 
     31 C52        10.0310   89.7760   64.0670 C.3       1 STI         0.0000 
     32 N51        10.0810   88.8580   65.2780 N.3       1 STI         0.0000 
     33 C54         8.9850   87.8750   65.3060 C.3       1 STI         0.0000 
     34 C50        10.0700   89.6590   66.5720 C.3       1 STI         0.0000 
     35 C49        11.2730   90.6520   66.5740 C.3       1 STI         0.0000 
     36 O29        13.2580   96.2310   60.0240 O.3       1 STI         0.0000 
     37 C20        10.9860  102.3510   57.6940 C.3       1 STI         0.0000 
     38 H11        16.4590  100.0740   49.5660 H         1 STI         0.0000 
     39 H61        14.4410   99.3690   50.9640 H         1 STI         0.0000 
     40 H41        16.1120  101.6720   54.3760 H         1 STI         0.0000 
     41 H21        18.2430  101.5700   50.6470 H         1 STI         0.0000 
     42 H121       12.5840   99.2390   52.1030 H         1 STI         0.0000 
     43 H111       10.7560   98.7040   53.7960 H         1 STI         0.0000 
     44 H131       14.1414   99.8135   57.6238 H         1 STI         0.0000 
     45 H181        9.4110  101.4100   59.7190 H         1 STI         0.0000 
     46 H171        9.6520   99.2900   61.1000 H         1 STI         0.0000 
     47 H151       13.2680   98.2410   58.8240 H         1 STI         0.0000 
     48 H211       10.7496   97.2709   61.6947 H         1 STI         0.0000 
     49 H251       14.6160   94.8480   61.7860 H         1 STI         0.0000 
     50 H261       14.5990   93.1860   63.6910 H         1 STI         0.0000 
     51 H281       10.3400   94.1640   64.4500 H         1 STI         0.0000 
     52 H291       10.3440   95.7830   62.5950 H         1 STI         0.0000 
     53 H461       13.2755   91.9162   65.3825 H         1 STI         0.0000 
     54 H462       12.2856   93.0852   66.3207 H         1 STI         0.0000 
     55 H531       11.1140   91.4567   63.2331 H         1 STI         0.0000 
     56 H532       12.1524   90.2108   64.0052 H         1 STI         0.0000 
     57 H521        9.0808   90.3301   64.0787 H         1 STI         0.0000 
     58 H522       10.0879   89.1651   63.1540 H         1 STI         0.0000 
     59 H541        9.0798   87.2456   66.2031 H         1 STI         0.0000 
     60 H542        9.0365   87.2427   64.4074 H         1 STI         0.0000 
     61 H543        8.0199   88.4024   65.3284 H         1 STI         0.0000 
     62 H501        9.1279   90.2218   66.6468 H         1 STI         0.0000 
     63 H502       10.1567   88.9738   67.4281 H         1 STI         0.0000 
     64 H491       12.2064   90.0701   66.5571 H         1 STI         0.0000 
     65 H492       11.2306   91.2504   67.4960 H         1 STI         0.0000 
     66 H201       10.0887  102.8665   58.0670 H         1 STI         0.0000 
     67 H202       10.8574  102.1168   56.6269 H         1 STI         0.0000 
     68 H203       11.8633  103.0019   57.8234 H         1 STI         0.0000 
     69 H69        14.9632  100.8099   55.4136 H         1 STI         0.0000 
     70 H70        11.0856   99.2307   56.1792 H         1 STI         0.0000 
     71 H71        13.4357  101.4435   57.3561 H         1 STI         0.0000 
@<TRIPOS>BOND
     1    1    2 1    
     2    1    6 1    
     3    1   38 1    
     4    2    3 1    
     5    2   39 1    
     6    3    4 1    
     7    3    7 1    
     8    4    5 1    
     9    4   40 1    
    10    5    6 1    
    11    6   41 1    
    12    7    8 1    
    13    7   12 1    
    14    8    9 1    
    15    8   42 1    
    16    9   10 1    
    17    9   43 1    
    18   10   11 1    
    19   10   70 1    
    20   11   12 1    
    21   11   13 1    
    22   12   69 1    
    23   13   14 1    
    24   13   44 1    
    25   13   71 1    
    26   14   15 1    
    27   14   19 1    
    28   15   16 1    
    29   15   37 1    
    30   16   17 1    
    31   16   45 1    
    32   17   18 1    
    33   17   46 1    
    34   18   19 1    
    35   18   20 1    
    36   19   47 1    
    37   20   21 1    
    38   20   48 1    
    39   21   22 1    
    40   21   36 1    
    41   22   23 1    
    42   22   27 1    
    43   23   24 1    
    44   23   49 1    
    45   24   25 1    
    46   24   50 1    
    47   25   26 1    
    48   25   28 1    
    49   26   27 1    
    50   26   51 1    
    51   27   52 1    
    52   28   29 1    
    53   28   53 1    
    54   28   54 1    
    55   29   30 1    
    56   29   35 1    
    57   30   31 1    
    58   30   55 1    
    59   30   56 1    
    60   31   32 1    
    61   31   57 1    
    62   31   58 1    
    63   32   33 1    
    64   32   34 1    
    65   33   59 1    
    66   33   60 1    
    67   33   61 1    
    68   34   35 1    
    69   34   62 1    
    70   34   63 1    
    71   35   64 1    
    72   35   65 1    
    73   37   66 1    
    74   37   67 1    
    75   37   68 1    
@<TRIPOS>SUBSTRUCTURE
     1 STI         1 GROUP             0       ****    0 ROOT    
@<TRIPOS>MOLECULE
STI
69   73    1
SMALL
USER_CHARGES


@<TRIPOS>ATOM
      1 C1         16.3560  100.4060   50.6140 C.3       1 STI         0.0000 
      2 C6         15.2180  100.0120   51.4140 C.3       1 STI         0.0000 
      3 C5         15.0890  100.4530   52.7980 C.3       1 STI         0.0000 
      4 C4         16.1380  101.2980   53.3390 C.3       1 STI         0.0000 
      5 N3         17.2200  101.6600   52.5430 N.3       1 STI         0.0000 
      6 C2         17.3560  101.2430   51.2150 C.3       1 STI         0.0000 
      7 C7         13.9280  100.0780   53.6730 C.3       1 STI         0.0000 
      8 C12        12.7230   99.4700   53.1730 C.3       1 STI         0.0000 
      9 C11        11.7040   99.1720   54.1140 C.3       1 STI         0.0000 
     10 N10        11.8810   99.4640   55.4560 N.3       1 STI         0.0000 
     11 C9         13.0530  100.0500   55.9070 C.3       1 STI         0.0000 
     12 N8         14.0460  100.3450   55.0230 N.3       1 STI         0.0000 
     13 N13        13.2630  100.3620   57.2530 N.4       1 STI         0.0000 
     14 C14        12.3020  100.1090   58.2460 C.3       1 STI         0.0000 
     15 C19        11.1950  101.0400   58.4880 C.3       1 STI         0.0000 
     16 C18        10.2510  100.7220   59.5240 C.3       1 STI         0.0000 
     17 C17        10.3860   99.5200   60.3090 C.3       1 STI         0.0000 
     18 C16        11.4560   98.6100   60.0860 C.3       1 STI         0.0000 
     19 C15        12.4240   98.9210   59.0320 C.3       1 STI         0.0000 
     20 N21        11.5160   97.4360   60.9230 N.3       1 STI         0.0000 
     21 C22        12.4460   96.4150   60.9100 C.3       1 STI         0.0000 
     22 C23        12.4720   95.4420   62.0420 C.3       1 STI         0.0000 
     23 C25        13.6890   94.6960   62.3640 C.3       1 STI         0.0000 
     24 C26        13.6820   93.7490   63.4490 C.3       1 STI         0.0000 
     25 C27        12.4630   93.5460   64.2140 C.3       1 STI         0.0000 
     26 C28        11.2740   94.3010   63.8790 C.3       1 STI         0.0000 
     27 C29        11.2720   95.2300   62.8170 C.3       1 STI         0.0000 
     28 C46        12.3710   92.5420   65.3680 C.3       1 STI         0.0000 
     29 N48        11.2300   91.5790   65.3640 N.3       1 STI         0.0000 
     30 C53        11.2140   90.7780   64.0930 C.3       1 STI         0.0000 
     31 C52        10.0310   89.7760   64.0670 C.3       1 STI         0.0000 
     32 N51        10.0810   88.8580   65.2780 N.3       1 STI         0.0000 
     33 C54         8.9850   87.8750   65.3060 C.3       1 STI         0.0000 
     34 C50        10.0700   89.6590   66.5720 C.3       1 STI         0.0000 
     35 C49        11.2730   90.6520   66.5740 C.3       1 STI         0.0000 
     36 O29        13.2580   96.2310   60.0240 O.3       1 STI         0.0000 
     37 C20        10.9860  102.3510   57.6940 C.3       1 STI         0.0000 
     38 H11        16.4590  100.0740   49.5660 H         1 STI         0.0000 
     39 H61        14.4410   99.3690   50.9640 H         1 STI         0.0000 
     40 H41        16.1120  101.6720   54.3760 H         1 STI         0.0000 
     41 H21        18.2430  101.5700   50.6470 H         1 STI         0.0000 
     42 H121       12.5840   99.2390   52.1030 H         1 STI         0.0000 
     43 H111       10.7560   98.7040   53.7960 H         1 STI         0.0000 
     44 H131       14.1414   99.8135   57.6238 H         1 STI         0.0000 
     45 H181        9.4110  101.4100   59.7190 H         1 STI         0.0000 
     46 H171        9.6520   99.2900   61.1000 H         1 STI         0.0000 
     47 H151       13.2680   98.2410   58.8240 H         1 STI         0.0000 
     48 H211       10.7496   97.2709   61.6947 H         1 STI         0.0000 
     49 H251       14.6160   94.8480   61.7860 H         1 STI         0.0000 
     50 H261       14.5990   93.1860   63.6910 H         1 STI         0.0000 
     51 H281       10.3400   94.1640   64.4500 H         1 STI         0.0000 
     52 H291       10.3440   95.7830   62.5950 H         1 STI         0.0000 
     53 H461       13.2755   91.9162   65.3825 H         1 STI         0.0000 
     54 H462       12.2856   93.0852   66.3207 H         1 STI         0.0000 
     55 H531       11.1140   91.4567   63.2331 H         1 STI         0.0000 
     56 H532       12.1524   90.2108   64.0052 H         1 STI         0.0000 
     57 H521        9.0808   90.3301   64.0787 H         1 STI         0.0000 
     58 H522       10.0879   89.1651   63.1540 H         1 STI         0.0000 
     59 H541        9.0798   87.2456   66.2031 H         1 STI         0.0000 
     60 H542        9.0365   87.2427   64.4074 H         1 STI         0.0000 
     61 H543        8.0199   88.4024   65.3284 H         1 STI         0.0000 
     62 H501        9.1279   90.2218   66.6468 H         1 STI         0.0000 
     63 H502       10.1567   88.9738   67.4281 H         1 STI         0.0000 
     64 H491       12.2064   90.0701   66.5571 H         1 STI         0.0000 
     65 H492       11.2306   91.2504   67.4960 H         1 STI         0.0000 
     66 H201       10.0887  102.8665   58.0670 H         1 STI         0.0000 
     67 H202       10.8574  102.1168   56.6269 H         1 STI         0.0000 
     68 H203       11.8633  103.0019   57.8234 H         1 STI         0.0000 
     69 H69        13.4357  101.4435   57.3561 H         1 STI         0.0000 
@<TRIPOS>BOND
     1    1    2 1    
     2    1    6 1    
     3    1   38 1    
     4    2    3 1    
     5    2   39 1    
     6    3    4 1    
     7    3    7 1    
     8    4    5 1    
     9    4   40 1    
    10    5    6 1    
    11    6   41 1    
    12    7    8 1    
    13    7   12 1    
    14    8    9 1    
    15    8   42 1    
    16    9   10 1    
    17    9   43 1    
    18   10   11 1    
    19   11   12 1    
    20   11   13 1    
    21   13   14 1    
    22   13   44 1    
    23   13   69 1    
    24   14   15 1    
    25   14   19 1    
    26   15   16 1    
    27   15   37 1    
    28   16   17 1    
    29   16   45 1    
    30   17   18 1    
    31   17   46 1    
    32   18   19 1    
    33   18   20 1    
    34   19   47 1    
    35   20   21 1    
    36   20   48 1    
    37   21   22 1    
    38   21   36 1    
    39   22   23 1    
    40   22   27 1    
    41   23   24 1    
    42   23   49 1    
    43   24   25 1    
    44   24   50 1    
    45   25   26 1    
    46   25   28 1    
    47   26   27 1    
    48   26   51 1    
    49   27   52 1    
    50   28   29 1    
    51   28   53 1    
    52   28   54 1    
    53   29   30 1    
    54   29   35 1    
    55   30   31 1    
    56   30   55 1    
    57   30   56 1    
    58   31   32 1    
    59   31   57 1    
    60   31   58 1    
    61   32   33 1    
    62   32   34 1    
    63   33   59 1    
    64   33   60 1    
    65   33   61 1    
    66   34   35 1    
    67   34   62 1    
    68   34   63 1    
    69   35   64 1    
    70   35   65 1    
    71   37   66 1    
    72   37   67 1    
    73   37   68 1    
@<TRIPOS>SUBSTRUCTURE
     1 STI         1 GROUP             0       ****    0 ROOT    
@<TRIPOS>MOLECULE
STI
70   74    1
SMALL
USER_CHARGES


@<TRIPOS>ATOM
      1 C1         16.3560  100.4060   50.6140 C.3       1 STI         0.0000 
      2 C6         15.2180  100.0120   51.4140 C.3       1 STI         0.0000 
      3 C5         15.0890  100.4530   52.7980 C.3       1 STI         0.0000 
      4 C4         16.1380  101.2980   53.3390 C.3       1 STI         0.0000 
      5 N3         17.2200  101.6600   52.5430 N.3       1 STI         0.0000 
      6 C2         17.3560  101.2430   51.2150 C.3       1 STI         0.0000 
      7 C7         13.9280  100.0780   53.6730 C.3       1 STI         0.0000 
      8 C12        12.7230   99.4700   53.1730 C.3       1 STI         0.0000 
      9 C11        11.7040   99.1720   54.1140 C.3       1 STI         0.0000 
     10 N10        11.8810   99.4640   55.4560 N.3       1 STI         0.0000 
     11 C9         13.0530  100.0500   55.9070 C.3       1 STI         0.0000 
     12 N8         14.0460  100.3450   55.0230 N.3       1 STI         0.0000 
     13 N13        13.2630  100.3620   57.2530 N.4       1 STI         0.0000 
     14 C14        12.3020  100.1090   58.2460 C.3       1 STI         0.0000 
     15 C19        11.1950  101.0400   58.4880 C.3       1 STI         0.0000 
     16 C18        10.2510  100.7220   59.5240 C.3       1 STI         0.0000 
     17 C17        10.3860   99.5200   60.3090 C.3       1 STI         0.0000 
     18 C16        11.4560   98.6100   60.0860 C.3       1 STI         0.0000 
     19 C15        12.4240   98.9210   59.0320 C.3       1 STI         0.0000 
     20 N21        11.5160   97.4360   60.9230 N.3       1 STI         0.0000 
     21 C22        12.4460   96.4150   60.9100 C.3       1 STI         0.0000 
     22 C23        12.4720   95.4420   62.0420 C.3       1 STI         0.0000 
     23 C25        13.6890   94.6960   62.3640 C.3       1 STI         0.0000 
     24 C26        13.6820   93.7490   63.4490 C.3       1 STI         0.0000 
     25 C27        12.4630   93.5460   64.2140 C.3       1 STI         0.0000 
     26 C28        11.2740   94.3010   63.8790 C.3       1 STI         0.0000 
     27 C29        11.2720   95.2300   62.8170 C.3       1 STI         0.0000 
     28 C46        12.3710   92.5420   65.3680 C.3       1 STI         0.0000 
     29 N48        11.2300   91.5790   65.3640 N.3       1 STI         0.0000 
     30 C53        11.2140   90.7780   64.0930 C.3       1 STI         0.0000 
     31 C52        10.0310   89.7760   64.0670 C.3       1 STI         0.0000 
     32 N51        10.0810   88.8580   65.2780 N.3       1 STI         0.0000 
     33 C54         8.9850   87.8750   65.3060 C.3       1 STI         0.0000 
     34 C50        10.0700   89.6590   66.5720 C.3       1 STI         0.0000 
     35 C49        11.2730   90.6520   66.5740 C.3       1 STI         0.0000 
     36 O29        13.2580   96.2310   60.0240 O.3       1 STI         0.0000 
     37 C20        10.9860  102.3510   57.6940 C.3       1 STI         0.0000 
     38 H11        16.4590  100.0740   49.5660 H         1 STI         0.0000 
     39 H61        14.4410   99.3690   50.9640 H         1 STI         0.0000 
     40 H41        16.1120  101.6720   54.3760 H         1 STI         0.0000 
     41 H21        18.2430  101.5700   50.6470 H         1 STI         0.0000 
     42 H121       12.5840   99.2390   52.1030 H         1 STI         0.0000 
     43 H111       10.7560   98.7040   53.7960 H         1 STI         0.0000 
     44 H131       14.1414   99.8135   57.6238 H         1 STI         0.0000 
     45 H181        9.4110  101.4100   59.7190 H         1 STI         0.0000 
     46 H171        9.6520   99.2900   61.1000 H         1 STI         0.0000 
     47 H151       13.2680   98.2410   58.8240 H         1 STI         0.0000 
     48 H211       10.7496   97.2709   61.6947 H         1 STI         0.0000 
     49 H251       14.6160   94.8480   61.7860 H         1 STI         0.0000 
     50 H261       14.5990   93.1860   63.6910 H         1 STI         0.0000 
     51 H281       10.3400   94.1640   64.4500 H         1 STI         0.0000 
     52 H291       10.3440   95.7830   62.5950 H         1 STI         0.0000 
     53 H461       13.2755   91.9162   65.3825 H         1 STI         0.0000 
     54 H462       12.2856   93.0852   66.3207 H         1 STI         0.0000 
     55 H531       11.1140   91.4567   63.2331 H         1 STI         0.0000 
     56 H532       12.1524   90.2108   64.0052 H         1 STI         0.0000 
     57 H521        9.0808   90.3301   64.0787 H         1 STI         0.0000 
     58 H522       10.0879   89.1651   63.1540 H         1 STI         0.0000 
     59 H541        9.0798   87.2456   66.2031 H         1 STI         0.0000 
     60 H542        9.0365   87.2427   64.4074 H         1 STI         0.0000 
     61 H543        8.0199   88.4024   65.3284 H         1 STI         0.0000 
     62 H501        9.1279   90.2218   66.6468 H         1 STI         0.0000 
     63 H502       10.1567   88.9738   67.4281 H         1 STI         0.0000 
     64 H491       12.2064   90.0701   66.5571 H         1 STI         0.0000 
     65 H492       11.2306   91.2504   67.4960 H         1 STI         0.0000 
     66 H201       10.0887  102.8665   58.0670 H         1 STI         0.0000 
     67 H202       10.8574  102.1168   56.6269 H         1 STI         0.0000 
     68 H203       11.8633  103.0019   57.8234 H         1 STI         0.0000 
     69 H69        13.4357  101.4435   57.3561 H         1 STI         0.0000 
     70 H70        14.9632  100.8099   55.4136 H         1 STI         0.0000 
@<TRIPOS>BOND
     1    1    2 1    
     2    1    6 1    
     3    1   38 1    
     4    2    3 1    
     5    2   39 1    
     6    3    4 1    
     7    3    7 1    
     8    4    5 1    
     9    4   40 1    
    10    5    6 1    
    11    6   41 1    
    12    7    8 1    
    13    7   12 1    
    14    8    9 1    
    15    8   42 1    
    16    9   10 1    
    17    9   43 1    
    18   10   11 1    
    19   11   12 1    
    20   11   13 1    
    21   12   70 1    
    22   13   14 1    
    23   13   44 1    
    24   13   69 1    
    25   14   15 1    
    26   14   19 1    
    27   15   16 1    
    28   15   37 1    
    29   16   17 1    
    30   16   45 1    
    31   17   18 1    
    32   17   46 1    
    33   18   19 1    
    34   18   20 1    
    35   19   47 1    
    36   20   21 1    
    37   20   48 1    
    38   21   22 1    
    39   21   36 1    
    40   22   23 1    
    41   22   27 1    
    42   23   24 1    
    43   23   49 1    
    44   24   25 1    
    45   24   50 1    
    46   25   26 1    
    47   25   28 1    
    48   26   27 1    
    49   26   51 1    
    50   27   52 1    
    51   28   29 1    
    52   28   53 1    
    53   28   54 1    
    54   29   30 1    
    55   29   35 1    
    56   30   31 1    
    57   30   55 1    
    58   30   56 1    
    59   31   32 1    
    60   31   57 1    
    61   31   58 1    
    62   32   33 1    
    63   32   34 1    
    64   33   59 1    
    65   33   60 1    
    66   33   61 1    
    67   34   35 1    
    68   34   62 1    
    69   34   63 1    
    70   35   64 1    
    71   35   65 1    
    72   37   66 1    
    73   37   67 1    
    74   37   68 1    
@<TRIPOS>SUBSTRUCTURE
     1 STI         1 GROUP             0       ****    0 ROOT    
@<TRIPOS>MOLECULE
STI
71   75    1
SMALL
USER_CHARGES


@<TRIPOS>ATOM
      1 C1         16.3560  100.4060   50.6140 C.3       1 STI         0.0000 
      2 C6         15.2180  100.0120   51.4140 C.3       1 STI         0.0000 
      3 C5         15.0890  100.4530   52.7980 C.3       1 STI         0.0000 
      4 C4         16.1380  101.2980   53.3390 C.3       1 STI         0.0000 
      5 N3         17.2200  101.6600   52.5430 N.3       1 STI         0.0000 
      6 C2         17.3560  101.2430   51.2150 C.3       1 STI         0.0000 
      7 C7         13.9280  100.0780   53.6730 C.3       1 STI         0.0000 
      8 C12        12.7230   99.4700   53.1730 C.3       1 STI         0.0000 
      9 C11        11.7040   99.1720   54.1140 C.3       1 STI         0.0000 
     10 N10        11.8810   99.4640   55.4560 N.3       1 STI         0.0000 
     11 C9         13.0530  100.0500   55.9070 C.3       1 STI         0.0000 
     12 N8         14.0460  100.3450   55.0230 N.3       1 STI         0.0000 
     13 N13        13.2630  100.3620   57.2530 N.4       1 STI         0.0000 
     14 C14        12.3020  100.1090   58.2460 C.3       1 STI         0.0000 
     15 C19        11.1950  101.0400   58.4880 C.3       1 STI         0.0000 
     16 C18        10.2510  100.7220   59.5240 C.3       1 STI         0.0000 
     17 C17        10.3860   99.5200   60.3090 C.3       1 STI         0.0000 
     18 C16        11.4560   98.6100   60.0860 C.3       1 STI         0.0000 
     19 C15        12.4240   98.9210   59.0320 C.3       1 STI         0.0000 
     20 N21        11.5160   97.4360   60.9230 N.3       1 STI         0.0000 
     21 C22        12.4460   96.4150   60.9100 C.3       1 STI         0.0000 
     22 C23        12.4720   95.4420   62.0420 C.3       1 STI         0.0000 
     23 C25        13.6890   94.6960   62.3640 C.3       1 STI         0.0000 
     24 C26        13.6820   93.7490   63.4490 C.3       1 STI         0.0000 
     25 C27        12.4630   93.5460   64.2140 C.3       1 STI         0.0000 
     26 C28        11.2740   94.3010   63.8790 C.3       1 STI         0.0000 
     27 C29        11.2720   95.2300   62.8170 C.3       1 STI         0.0000 
     28 C46        12.3710   92.5420   65.3680 C.3       1 STI         0.0000 
     29 N48        11.2300   91.5790   65.3640 N.4       1 STI         0.0000 
     30 C53        11.2140   90.7780   64.0930 C.3       1 STI         0.0000 
     31 C52        10.0310   89.7760   64.0670 C.3       1 STI         0.0000 
     32 N51        10.0810   88.8580   65.2780 N.3       1 STI         0.0000 
     33 C54         8.9850   87.8750   65.3060 C.3       1 STI         0.0000 
     34 C50        10.0700   89.6590   66.5720 C.3       1 STI         0.0000 
     35 C49        11.2730   90.6520   66.5740 C.3       1 STI         0.0000 
     36 O29        13.2580   96.2310   60.0240 O.3       1 STI         0.0000 
     37 C20        10.9860  102.3510   57.6940 C.3       1 STI         0.0000 
     38 H11        16.4590  100.0740   49.5660 H         1 STI         0.0000 
     39 H61        14.4410   99.3690   50.9640 H         1 STI         0.0000 
     40 H41        16.1120  101.6720   54.3760 H         1 STI         0.0000 
     41 H21        18.2430  101.5700   50.6470 H         1 STI         0.0000 
     42 H121       12.5840   99.2390   52.1030 H         1 STI         0.0000 
     43 H111       10.7560   98.7040   53.7960 H         1 STI         0.0000 
     44 H131       14.1414   99.8135   57.6238 H         1 STI         0.0000 
     45 H181        9.4110  101.4100   59.7190 H         1 STI         0.0000 
     46 H171        9.6520   99.2900   61.1000 H         1 STI         0.0000 
     47 H151       13.2680   98.2410   58.8240 H         1 STI         0.0000 
     48 H211       10.7496   97.2709   61.6947 H         1 STI         0.0000 
     49 H251       14.6160   94.8480   61.7860 H         1 STI         0.0000 
     50 H261       14.5990   93.1860   63.6910 H         1 STI         0.0000 
     51 H281       10.3400   94.1640   64.4500 H         1 STI         0.0000 
     52 H291       10.3440   95.7830   62.5950 H         1 STI         0.0000 
     53 H461       13.2755   91.9162   65.3825 H         1 STI         0.0000 
     54 H462       12.2856   93.0852   66.3207 H         1 STI         0.0000 
     55 H531       11.1140   91.4567   63.2331 H         1 STI         0.0000 
     56 H532       12.1524   90.2108   64.0052 H         1 STI         0.0000 
     57 H521        9.0808   90.3301   64.0787 H         1 STI         0.0000 
     58 H522       10.0879   89.1651   63.1540 H         1 STI         0.0000 
     59 H541        9.0798   87.2456   66.2031 H         1 STI         0.0000 
     60 H542        9.0365   87.2427   64.4074 H         1 STI         0.0000 
     61 H543        8.0199   88.4024   65.3284 H         1 STI         0.0000 
     62 H501        9.1279   90.2218   66.6468 H         1 STI         0.0000 
     63 H502       10.1567   88.9738   67.4281 H         1 STI         0.0000 
     64 H491       12.2064   90.0701   66.5571 H         1 STI         0.0000 
     65 H492       11.2306   91.2504   67.4960 H         1 STI         0.0000 
     66 H201       10.0887  102.8665   58.0670 H         1 STI         0.0000 
     67 H202       10.8574  102.1168   56.6269 H         1 STI         0.0000 
     68 H203       11.8633  103.0019   57.8234 H         1 STI         0.0000 
     69 H69        13.4357  101.4435   57.3561 H         1 STI         0.0000 
     70 H70        10.3106   92.1812   65.4089 H         1 STI         0.0000 
     71 H71        11.0856   99.2307   56.1792 H         1 STI         0.0000 
@<TRIPOS>BOND
     1    1    2 1    
     2    1    6 1    
     3    1   38 1    
     4    2    3 1    
     5    2   39 1    
     6    3    4 1    
     7    3    7 1    
     8    4    5 1    
     9    4   40 1    
    10    5    6 1    
    11    6   41 1    
    12    7    8 1    
    13    7   12 1    
    14    8    9 1    
    15    8   42 1    
    16    9   10 1    
    17    9   43 1    
    18   10   11 1    
    19   10   71 1    
    20   11   12 1    
    21   11   13 1    
    22   13   14 1    
    23   13   44 1    
    24   13   69 1    
    25   14   15 1    
    26   14   19 1    
    27   15   16 1    
    28   15   37 1    
    29   16   17 1    
    30   16   45 1    
    31   17   18 1    
    32   17   46 1    
    33   18   19 1    
    34   18   20 1    
    35   19   47 1    
    36   20   21 1    
    37   20   48 1    
    38   21   22 1    
    39   21   36 1    
    40   22   23 1    
    41   22   27 1    
    42   23   24 1    
    43   23   49 1    
    44   24   25 1    
    45   24   50 1    
    46   25   26 1    
    47   25   28 1    
    48   26   27 1    
    49   26   51 1    
    50   27   52 1    
    51   28   29 1    
    52   28   53 1    
    53   28   54 1    
    54   29   30 1    
    55   29   35 1    
    56   29   70 1    
    57   30   31 1    
    58   30   55 1    
    59   30   56 1    
    60   31   32 1    
    61   31   57 1    
    62   31   58 1    
    63   32   33 1    
    64   32   34 1    
    65   33   59 1    
    66   33   60 1    
    67   33   61 1    
    68   34   35 1    
    69   34   62 1    
    70   34   63 1    
    71   35   64 1    
    72   35   65 1    
    73   37   66 1    
    74   37   67 1    
    75   37   68 1    
@<TRIPOS>SUBSTRUCTURE
     1 STI         1 GROUP             0       ****    0 ROOT    
