4-[(4-methylpiperazin-1-yl)methyl]-~{N}-[4-methyl-3-[[4-(3-pyridyl)pyrimidin-2-yl]amino]phenyl]benzamide
                    3D
 Structure written by MMmdl.
 69 73  0  0  1  0            999 V2000
   -2.2405   -7.1062   10.2698 C   0  0  0  0  0  0
   -2.2226   -6.0497    9.3822 C   0  0  0  0  0  0
   -2.1262   -6.2718    7.9594 C   0  0  0  0  0  0
   -1.4606   -7.3756    7.4511 C   0  0  0  0  0  0
   -1.3339   -7.6417    6.1318 N   0  0  0  0  0  0
   -1.9033   -6.7563    5.2835 C   0  0  0  0  0  0
   -2.5898   -5.6236    5.6902 C   0  0  0  0  0  0
   -2.6988   -5.3839    7.0555 C   0  0  0  0  0  0
   -2.2911   -4.7552    9.7563 N   0  0  0  0  0  0
   -2.3804   -4.5515   11.0844 C   0  0  0  0  0  0
   -2.4535   -3.2106   11.5116 N   0  0  0  0  0  0
   -2.4532   -1.9825   10.8141 C   0  0  0  0  0  0
   -3.1249   -0.8719   11.3251 C   0  0  0  0  0  0
   -3.1148    0.3333   10.6229 C   0  0  0  0  0  0
   -2.4330    0.4279    9.4097 C   0  0  0  0  0  0
   -1.7613   -0.6828    8.8987 C   0  0  0  0  0  0
   -1.7714   -1.8879    9.6010 C   0  0  0  0  0  0
   -1.0683   -0.5860    7.6657 N   0  0  0  0  0  0
   -0.3483   -1.5855    7.0095 C   0  0  0  0  0  0
    0.2872   -1.1552    5.7742 C   0  0  0  0  0  0
    0.6454    0.1820    5.6035 C   0  0  0  0  0  0
    1.2550    0.5951    4.4188 C   0  0  0  0  0  0
    1.5062   -0.3291    3.4047 C   0  0  0  0  0  0
    1.1479   -1.6664    3.5754 C   0  0  0  0  0  0
    0.5384   -2.0794    4.7601 C   0  0  0  0  0  0
    2.1604    0.1160    2.1288 C   0  0  0  0  0  0
    3.2187   -0.8002    1.7081 N   0  3  0  0  0  0
    4.4328   -0.5968    2.5079 C   0  0  0  0  0  0
    5.5443   -1.5548    2.0658 C   0  0  0  0  0  0
    5.8387   -1.3891    0.6372 N   0  0  0  0  0  0
    4.6249   -1.5935   -0.1628 C   0  0  0  0  0  0
    3.5125   -0.6365    0.2792 C   0  0  0  0  0  0
    6.8981   -2.3037    0.2160 C   0  0  0  0  0  0
   -0.2094   -2.7337    7.4258 O   0  0  0  0  0  0
   -3.8632   -0.9449   12.6220 C   0  0  0  0  0  0
   -2.4066   -5.4922   12.0477 N   0  0  0  0  0  0
   -2.3348   -6.7641   11.6033 C   0  0  0  0  0  0
   -2.1850   -8.1410    9.9554 H   0  0  0  0  0  0
   -0.9922   -8.1071    8.1036 H   0  0  0  0  0  0
   -1.7896   -6.9877    4.2295 H   0  0  0  0  0  0
   -3.0279   -4.9455    4.9667 H   0  0  0  0  0  0
   -3.2323   -4.5016    7.4004 H   0  0  0  0  0  0
   -2.5278   -2.9784   12.5842 H   0  0  0  0  0  0
   -3.6349    1.2043   11.0128 H   0  0  0  0  0  0
   -2.4314    1.3721    8.8710 H   0  0  0  0  0  0
   -1.2476   -2.7542    9.2020 H   0  0  0  0  0  0
   -1.0604    0.3647    7.1124 H   0  0  0  0  0  0
    0.4548    0.9109    6.3872 H   0  0  0  0  0  0
    1.5303    1.6391    4.2946 H   0  0  0  0  0  0
    1.3397   -2.3930    2.7904 H   0  0  0  0  0  0
    0.2637   -3.1239    4.8822 H   0  0  0  0  0  0
    1.4079    0.1628    1.3278 H   0  0  0  0  0  0
    2.6051    1.1118    2.2727 H   0  0  0  0  0  0
    4.7859    0.4373    2.3819 H   0  0  0  0  0  0
    4.2081   -0.7808    3.5689 H   0  0  0  0  0  0
    6.4579   -1.3473    2.6422 H   0  0  0  0  0  0
    5.2262   -2.5926    2.2439 H   0  0  0  0  0  0
    4.8497   -1.4092   -1.2237 H   0  0  0  0  0  0
    4.2727   -2.6280   -0.0370 H   0  0  0  0  0  0
    2.6074   -0.8507   -0.3081 H   0  0  0  0  0  0
    3.8378    0.3967    0.0877 H   0  0  0  0  0  0
    7.1007   -2.1613   -0.8558 H   0  0  0  0  0  0
    6.5791   -3.3412    0.3942 H   0  0  0  0  0  0
    7.8118   -2.0968    0.7926 H   0  0  0  0  0  0
   -4.3183    0.0325   12.8404 H   0  0  0  0  0  0
   -3.1635   -1.2118   13.4277 H   0  0  0  0  0  0
   -4.6514   -1.7091   12.5527 H   0  0  0  0  0  0
   -2.3562   -7.5262   12.3751 H   0  0  0  0  0  0
    2.8592   -1.8263    1.8747 H   0  0  0  0  0  0
  1 37  2  0  0  0
  1  2  1  0  0  0
  1 38  1  0  0  0
  2  3  1  0  0  0
  2  9  2  0  0  0
  3  8  2  0  0  0
  3  4  1  0  0  0
  4  5  2  0  0  0
  4 39  1  0  0  0
  5  6  1  0  0  0
  6  7  2  0  0  0
  6 40  1  0  0  0
  7  8  1  0  0  0
  7 41  1  0  0  0
  8 42  1  0  0  0
  9 10  1  0  0  0
 10 11  1  0  0  0
 10 36  2  0  0  0
 11 12  1  0  0  0
 11 43  1  0  0  0
 12 17  2  0  0  0
 12 13  1  0  0  0
 13 14  2  0  0  0
 13 35  1  0  0  0
 14 15  1  0  0  0
 14 44  1  0  0  0
 15 16  2  0  0  0
 15 45  1  0  0  0
 16 17  1  0  0  0
 16 18  1  0  0  0
 17 46  1  0  0  0
 18 19  1  0  0  0
 18 47  1  0  0  0
 19 20  1  0  0  0
 19 34  2  0  0  0
 20 25  2  0  0  0
 20 21  1  0  0  0
 21 22  2  0  0  0
 21 48  1  0  0  0
 22 23  1  0  0  0
 22 49  1  0  0  0
 23 24  2  0  0  0
 23 26  1  0  0  0
 24 25  1  0  0  0
 24 50  1  0  0  0
 25 51  1  0  0  0
 26 27  1  0  0  0
 26 52  1  0  0  0
 26 53  1  0  0  0
 27 32  1  0  0  0
 27 28  1  0  0  0
 27 69  1  0  0  0
 28 29  1  0  0  0
 28 54  1  0  0  0
 28 55  1  0  0  0
 29 30  1  0  0  0
 29 56  1  0  0  0
 29 57  1  0  0  0
 30 31  1  0  0  0
 30 33  1  0  0  0
 31 32  1  0  0  0
 31 58  1  0  0  0
 31 59  1  0  0  0
 32 60  1  0  0  0
 32 61  1  0  0  0
 33 62  1  0  0  0
 33 63  1  0  0  0
 33 64  1  0  0  0
 35 65  1  0  0  0
 35 66  1  0  0  0
 35 67  1  0  0  0
 36 37  1  0  0  0
 37 68  1  0  0  0
M  CHG  1  27   1
M  END
> <s_m_source_file>
/cbio/jclab/home/andrrizzi/epik_inhibitors/output/Imatinib/Imatinib-input.mol2

> <i_m_source_file_index>
1

> <r_lp_tautomer_probability>
0.999999812000036

> <r_epik_Ionization_Penalty>
  0.0388

> <r_epik_Ionization_Penalty_Charging>
  0.0381

> <r_epik_Ionization_Penalty_Neutral>
  0.0008

> <r_epik_State_Penalty>
  0.3156

> <i_epik_Tot_Q>
1

$$$$
4-[(4-methylpiperazin-1-yl)methyl]-~{N}-[4-methyl-3-[[4-(3-pyridyl)pyrimidin-2-yl]amino]phenyl]benzamide
                    3D
 Structure written by MMmdl.
 69 73  0  0  1  0            999 V2000
   -2.2405   -7.1062   10.2698 C   0  0  0  0  0  0
   -2.2226   -6.0497    9.3822 C   0  0  0  0  0  0
   -2.1262   -6.2718    7.9594 C   0  0  0  0  0  0
   -1.4606   -7.3756    7.4511 C   0  0  0  0  0  0
   -1.3339   -7.6417    6.1318 N   0  0  0  0  0  0
   -1.9033   -6.7563    5.2835 C   0  0  0  0  0  0
   -2.5898   -5.6236    5.6902 C   0  0  0  0  0  0
   -2.6988   -5.3839    7.0555 C   0  0  0  0  0  0
   -2.2911   -4.7552    9.7563 N   0  0  0  0  0  0
   -2.3804   -4.5515   11.0844 C   0  0  0  0  0  0
   -2.4535   -3.2106   11.5116 N   0  0  0  0  0  0
   -2.4532   -1.9825   10.8141 C   0  0  0  0  0  0
   -3.1249   -0.8719   11.3251 C   0  0  0  0  0  0
   -3.1148    0.3333   10.6229 C   0  0  0  0  0  0
   -2.4330    0.4279    9.4097 C   0  0  0  0  0  0
   -1.7613   -0.6828    8.8987 C   0  0  0  0  0  0
   -1.7714   -1.8879    9.6010 C   0  0  0  0  0  0
   -1.0683   -0.5860    7.6657 N   0  0  0  0  0  0
   -0.3483   -1.5855    7.0095 C   0  0  0  0  0  0
    0.2872   -1.1552    5.7742 C   0  0  0  0  0  0
    0.6454    0.1820    5.6035 C   0  0  0  0  0  0
    1.2550    0.5951    4.4188 C   0  0  0  0  0  0
    1.5062   -0.3291    3.4047 C   0  0  0  0  0  0
    1.1479   -1.6664    3.5754 C   0  0  0  0  0  0
    0.5384   -2.0794    4.7601 C   0  0  0  0  0  0
    2.1604    0.1160    2.1288 C   0  0  0  0  0  0
    3.2187   -0.8002    1.7081 N   0  0  0  0  0  0
    4.4328   -0.5968    2.5079 C   0  0  0  0  0  0
    5.5443   -1.5548    2.0658 C   0  0  0  0  0  0
    5.8387   -1.3891    0.6372 N   0  3  0  0  0  0
    4.6249   -1.5935   -0.1628 C   0  0  0  0  0  0
    3.5125   -0.6365    0.2792 C   0  0  0  0  0  0
    6.8981   -2.3037    0.2160 C   0  0  0  0  0  0
   -0.2094   -2.7337    7.4258 O   0  0  0  0  0  0
   -3.8632   -0.9449   12.6220 C   0  0  0  0  0  0
   -2.4066   -5.4922   12.0477 N   0  0  0  0  0  0
   -2.3348   -6.7641   11.6033 C   0  0  0  0  0  0
   -2.1850   -8.1410    9.9554 H   0  0  0  0  0  0
   -0.9922   -8.1071    8.1036 H   0  0  0  0  0  0
   -1.7896   -6.9877    4.2295 H   0  0  0  0  0  0
   -3.0279   -4.9455    4.9667 H   0  0  0  0  0  0
   -3.2323   -4.5016    7.4004 H   0  0  0  0  0  0
   -2.5278   -2.9784   12.5842 H   0  0  0  0  0  0
   -3.6349    1.2043   11.0128 H   0  0  0  0  0  0
   -2.4314    1.3721    8.8710 H   0  0  0  0  0  0
   -1.2476   -2.7542    9.2020 H   0  0  0  0  0  0
   -1.0604    0.3647    7.1124 H   0  0  0  0  0  0
    0.4548    0.9109    6.3872 H   0  0  0  0  0  0
    1.5303    1.6391    4.2946 H   0  0  0  0  0  0
    1.3397   -2.3930    2.7904 H   0  0  0  0  0  0
    0.2637   -3.1239    4.8822 H   0  0  0  0  0  0
    1.4079    0.1628    1.3278 H   0  0  0  0  0  0
    2.6051    1.1118    2.2727 H   0  0  0  0  0  0
    4.7859    0.4373    2.3819 H   0  0  0  0  0  0
    4.2081   -0.7808    3.5689 H   0  0  0  0  0  0
    6.4579   -1.3473    2.6422 H   0  0  0  0  0  0
    5.2262   -2.5926    2.2439 H   0  0  0  0  0  0
    4.8497   -1.4092   -1.2237 H   0  0  0  0  0  0
    4.2727   -2.6280   -0.0370 H   0  0  0  0  0  0
    2.6074   -0.8507   -0.3081 H   0  0  0  0  0  0
    3.8378    0.3967    0.0877 H   0  0  0  0  0  0
    7.1007   -2.1613   -0.8558 H   0  0  0  0  0  0
    6.5791   -3.3412    0.3942 H   0  0  0  0  0  0
    7.8118   -2.0968    0.7926 H   0  0  0  0  0  0
   -4.3183    0.0325   12.8404 H   0  0  0  0  0  0
   -3.1635   -1.2118   13.4277 H   0  0  0  0  0  0
   -4.6514   -1.7091   12.5527 H   0  0  0  0  0  0
   -2.3562   -7.5262   12.3751 H   0  0  0  0  0  0
    6.1973   -0.3625    0.4715 H   0  0  0  0  0  0
  1 37  2  0  0  0
  1  2  1  0  0  0
  1 38  1  0  0  0
  2  3  1  0  0  0
  2  9  2  0  0  0
  3  8  2  0  0  0
  3  4  1  0  0  0
  4  5  2  0  0  0
  4 39  1  0  0  0
  5  6  1  0  0  0
  6  7  2  0  0  0
  6 40  1  0  0  0
  7  8  1  0  0  0
  7 41  1  0  0  0
  8 42  1  0  0  0
  9 10  1  0  0  0
 10 11  1  0  0  0
 10 36  2  0  0  0
 11 12  1  0  0  0
 11 43  1  0  0  0
 12 17  2  0  0  0
 12 13  1  0  0  0
 13 14  2  0  0  0
 13 35  1  0  0  0
 14 15  1  0  0  0
 14 44  1  0  0  0
 15 16  2  0  0  0
 15 45  1  0  0  0
 16 17  1  0  0  0
 16 18  1  0  0  0
 17 46  1  0  0  0
 18 19  1  0  0  0
 18 47  1  0  0  0
 19 20  1  0  0  0
 19 34  2  0  0  0
 20 25  2  0  0  0
 20 21  1  0  0  0
 21 22  2  0  0  0
 21 48  1  0  0  0
 22 23  1  0  0  0
 22 49  1  0  0  0
 23 24  2  0  0  0
 23 26  1  0  0  0
 24 25  1  0  0  0
 24 50  1  0  0  0
 25 51  1  0  0  0
 26 27  1  0  0  0
 26 52  1  0  0  0
 26 53  1  0  0  0
 27 32  1  0  0  0
 27 28  1  0  0  0
 28 29  1  0  0  0
 28 54  1  0  0  0
 28 55  1  0  0  0
 29 30  1  0  0  0
 29 56  1  0  0  0
 29 57  1  0  0  0
 30 31  1  0  0  0
 30 33  1  0  0  0
 30 69  1  0  0  0
 31 32  1  0  0  0
 31 58  1  0  0  0
 31 59  1  0  0  0
 32 60  1  0  0  0
 32 61  1  0  0  0
 33 62  1  0  0  0
 33 63  1  0  0  0
 33 64  1  0  0  0
 35 65  1  0  0  0
 35 66  1  0  0  0
 35 67  1  0  0  0
 36 37  1  0  0  0
 37 68  1  0  0  0
M  CHG  1  30   1
M  END
> <s_m_source_file>
/cbio/jclab/home/andrrizzi/epik_inhibitors/output/Imatinib/Imatinib-input.mol2

> <i_m_source_file_index>
1

> <r_epik_Ionization_Penalty>
  0.0796

> <r_epik_Ionization_Penalty_Charging>
  0.0563

> <r_epik_Ionization_Penalty_Neutral>
  0.0234

> <r_epik_State_Penalty>
  0.5725

> <i_epik_Tot_Q>
1

$$$$
4-[(4-methylpiperazin-1-yl)methyl]-~{N}-[4-methyl-3-[[4-(3-pyridyl)pyrimidin-2-yl]amino]phenyl]benzamide
                    3D
 Structure written by MMmdl.
 68 72  0  0  1  0            999 V2000
   -2.2405   -7.1062   10.2698 C   0  0  0  0  0  0
   -2.2226   -6.0497    9.3822 C   0  0  0  0  0  0
   -2.1262   -6.2718    7.9594 C   0  0  0  0  0  0
   -1.4606   -7.3756    7.4511 C   0  0  0  0  0  0
   -1.3339   -7.6417    6.1318 N   0  0  0  0  0  0
   -1.9033   -6.7563    5.2835 C   0  0  0  0  0  0
   -2.5898   -5.6236    5.6902 C   0  0  0  0  0  0
   -2.6988   -5.3839    7.0555 C   0  0  0  0  0  0
   -2.2911   -4.7552    9.7563 N   0  0  0  0  0  0
   -2.3804   -4.5515   11.0844 C   0  0  0  0  0  0
   -2.4535   -3.2106   11.5116 N   0  0  0  0  0  0
   -2.4532   -1.9825   10.8141 C   0  0  0  0  0  0
   -3.1249   -0.8719   11.3251 C   0  0  0  0  0  0
   -3.1148    0.3333   10.6229 C   0  0  0  0  0  0
   -2.4330    0.4279    9.4097 C   0  0  0  0  0  0
   -1.7613   -0.6828    8.8987 C   0  0  0  0  0  0
   -1.7714   -1.8879    9.6010 C   0  0  0  0  0  0
   -1.0683   -0.5860    7.6657 N   0  0  0  0  0  0
   -0.3483   -1.5855    7.0095 C   0  0  0  0  0  0
    0.2872   -1.1552    5.7742 C   0  0  0  0  0  0
    0.6454    0.1820    5.6035 C   0  0  0  0  0  0
    1.2550    0.5951    4.4188 C   0  0  0  0  0  0
    1.5062   -0.3291    3.4047 C   0  0  0  0  0  0
    1.1479   -1.6664    3.5754 C   0  0  0  0  0  0
    0.5384   -2.0794    4.7601 C   0  0  0  0  0  0
    2.1604    0.1160    2.1288 C   0  0  0  0  0  0
    3.2187   -0.8002    1.7081 N   0  0  0  0  0  0
    4.4328   -0.5968    2.5079 C   0  0  0  0  0  0
    5.5443   -1.5548    2.0658 C   0  0  0  0  0  0
    5.8387   -1.3891    0.6372 N   0  0  0  0  0  0
    4.6249   -1.5935   -0.1628 C   0  0  0  0  0  0
    3.5125   -0.6365    0.2792 C   0  0  0  0  0  0
    6.8981   -2.3037    0.2160 C   0  0  0  0  0  0
   -0.2094   -2.7337    7.4258 O   0  0  0  0  0  0
   -3.8632   -0.9449   12.6220 C   0  0  0  0  0  0
   -2.4066   -5.4922   12.0477 N   0  0  0  0  0  0
   -2.3348   -6.7641   11.6033 C   0  0  0  0  0  0
   -2.1850   -8.1410    9.9554 H   0  0  0  0  0  0
   -0.9922   -8.1071    8.1036 H   0  0  0  0  0  0
   -1.7896   -6.9877    4.2295 H   0  0  0  0  0  0
   -3.0279   -4.9455    4.9667 H   0  0  0  0  0  0
   -3.2323   -4.5016    7.4004 H   0  0  0  0  0  0
   -2.5278   -2.9784   12.5842 H   0  0  0  0  0  0
   -3.6349    1.2043   11.0128 H   0  0  0  0  0  0
   -2.4314    1.3721    8.8710 H   0  0  0  0  0  0
   -1.2476   -2.7542    9.2020 H   0  0  0  0  0  0
   -1.0604    0.3647    7.1124 H   0  0  0  0  0  0
    0.4548    0.9109    6.3872 H   0  0  0  0  0  0
    1.5303    1.6391    4.2946 H   0  0  0  0  0  0
    1.3397   -2.3930    2.7904 H   0  0  0  0  0  0
    0.2637   -3.1239    4.8822 H   0  0  0  0  0  0
    1.4079    0.1628    1.3278 H   0  0  0  0  0  0
    2.6051    1.1118    2.2727 H   0  0  0  0  0  0
    4.7859    0.4373    2.3819 H   0  0  0  0  0  0
    4.2081   -0.7808    3.5689 H   0  0  0  0  0  0
    6.4579   -1.3473    2.6422 H   0  0  0  0  0  0
    5.2262   -2.5926    2.2439 H   0  0  0  0  0  0
    4.8497   -1.4092   -1.2237 H   0  0  0  0  0  0
    4.2727   -2.6280   -0.0370 H   0  0  0  0  0  0
    2.6074   -0.8507   -0.3081 H   0  0  0  0  0  0
    3.8378    0.3967    0.0877 H   0  0  0  0  0  0
    7.1007   -2.1613   -0.8558 H   0  0  0  0  0  0
    6.5791   -3.3412    0.3942 H   0  0  0  0  0  0
    7.8118   -2.0968    0.7926 H   0  0  0  0  0  0
   -4.3183    0.0325   12.8404 H   0  0  0  0  0  0
   -3.1635   -1.2118   13.4277 H   0  0  0  0  0  0
   -4.6514   -1.7091   12.5527 H   0  0  0  0  0  0
   -2.3562   -7.5262   12.3751 H   0  0  0  0  0  0
  1 37  2  0  0  0
  1  2  1  0  0  0
  1 38  1  0  0  0
  2  3  1  0  0  0
  2  9  2  0  0  0
  3  8  2  0  0  0
  3  4  1  0  0  0
  4  5  2  0  0  0
  4 39  1  0  0  0
  5  6  1  0  0  0
  6  7  2  0  0  0
  6 40  1  0  0  0
  7  8  1  0  0  0
  7 41  1  0  0  0
  8 42  1  0  0  0
  9 10  1  0  0  0
 10 11  1  0  0  0
 10 36  2  0  0  0
 11 12  1  0  0  0
 11 43  1  0  0  0
 12 17  2  0  0  0
 12 13  1  0  0  0
 13 14  2  0  0  0
 13 35  1  0  0  0
 14 15  1  0  0  0
 14 44  1  0  0  0
 15 16  2  0  0  0
 15 45  1  0  0  0
 16 17  1  0  0  0
 16 18  1  0  0  0
 17 46  1  0  0  0
 18 19  1  0  0  0
 18 47  1  0  0  0
 19 20  1  0  0  0
 19 34  2  0  0  0
 20 25  2  0  0  0
 20 21  1  0  0  0
 21 22  2  0  0  0
 21 48  1  0  0  0
 22 23  1  0  0  0
 22 49  1  0  0  0
 23 24  2  0  0  0
 23 26  1  0  0  0
 24 25  1  0  0  0
 24 50  1  0  0  0
 25 51  1  0  0  0
 26 27  1  0  0  0
 26 52  1  0  0  0
 26 53  1  0  0  0
 27 32  1  0  0  0
 27 28  1  0  0  0
 28 29  1  0  0  0
 28 54  1  0  0  0
 28 55  1  0  0  0
 29 30  1  0  0  0
 29 56  1  0  0  0
 29 57  1  0  0  0
 30 31  1  0  0  0
 30 33  1  0  0  0
 31 32  1  0  0  0
 31 58  1  0  0  0
 31 59  1  0  0  0
 32 60  1  0  0  0
 32 61  1  0  0  0
 33 62  1  0  0  0
 33 63  1  0  0  0
 33 64  1  0  0  0
 35 65  1  0  0  0
 35 66  1  0  0  0
 35 67  1  0  0  0
 36 37  1  0  0  0
 37 68  1  0  0  0
M  END
> <s_m_source_file>
/cbio/jclab/home/andrrizzi/epik_inhibitors/output/Imatinib/Imatinib-input.mol2

> <i_m_source_file_index>
1

> <r_lp_tautomer_probability>
0.999999812000036

> <r_epik_Ionization_Penalty>
  3.0680

> <r_epik_Ionization_Penalty_Charging>
  0.0000

> <r_epik_Ionization_Penalty_Neutral>
  3.0680

> <r_epik_State_Penalty>
  2.0305

> <i_epik_Tot_Q>
0

$$$$
