@<TRIPOS>MOLECULE
4-[(4-methylpiperazin-1-ium-1-yl)methyl]-~{N}-[4-methyl-3-[[4-(3-pyridyl)pyrimidin-2-yl]amino]phenyl]benzamide
   69    73     0     0     0
SMALL
USER_CHARGES

@<TRIPOS>ATOM
      1 C1         16.3560  100.4060   50.6140 C.ar      1 <0>        -0.2557
      2 C2         15.2180  100.0120   51.4140 C.ar      1 <0>        -0.0478
      3 C3         15.0890  100.4530   52.7980 C.ar      1 <0>        -0.2837
      4 C4         16.1380  101.2980   53.3390 C.ar      1 <0>         0.4206
      5 N1         17.2200  101.6600   52.5430 N.ar      1 <0>        -0.6659
      6 C5         17.3560  101.2430   51.2150 C.ar      1 <0>         0.4134
      7 C6         13.9280  100.0780   53.6730 C.ar      1 <0>         0.5485
      8 C7         12.7230   99.4700   53.1730 C.ar      1 <0>        -0.4055
      9 C8         11.7040   99.1720   54.1140 C.ar      1 <0>         0.4607
     10 N2         11.8810   99.4640   55.4560 N.ar      1 <0>        -0.7398
     11 C9         13.0530  100.0500   55.9070 C.ar      1 <0>         0.8864
     12 N3         14.0460  100.3450   55.0230 N.ar      1 <0>        -0.7618
     13 N4         13.2630  100.3620   57.2530 N.pl3     1 <0>        -0.7455
     14 C10        12.3020  100.1090   58.2460 C.ar      1 <0>         0.1758
     15 C11        11.1950  101.0400   58.4880 C.ar      1 <0>        -0.1064
     16 C12        10.2510  100.7220   59.5240 C.ar      1 <0>        -0.0980
     17 C13        10.3860   99.5200   60.3090 C.ar      1 <0>        -0.1484
     18 C14        11.4560   98.6100   60.0860 C.ar      1 <0>         0.0518
     19 C15        12.4240   98.9210   59.0320 C.ar      1 <0>        -0.1589
     20 N5         11.5160   97.4360   60.9230 N.am      1 <0>        -0.4534
     21 C16        12.4460   96.4150   60.9100 C.2       1 <0>         0.6693
     22 C17        12.4720   95.4420   62.0420 C.ar      1 <0>        -0.1040
     23 C18        13.6890   94.6960   62.3640 C.ar      1 <0>        -0.0782
     24 C19        13.6820   93.7490   63.4490 C.ar      1 <0>        -0.1228
     25 C20        12.4630   93.5460   64.2140 C.ar      1 <0>        -0.1534
     26 C21        11.2740   94.3010   63.8790 C.ar      1 <0>        -0.1228
     27 C22        11.2720   95.2300   62.8170 C.ar      1 <0>        -0.0782
     28 C23        12.3710   92.5420   65.3680 C.3       1 <0>         0.1698
     29 N6         11.2300   91.5790   65.3640 N.4       1 <0>        -0.6882
     30 C24        11.2140   90.7780   64.0930 C.3       1 <0>         0.1090
     31 C25        10.0310   89.7760   64.0670 C.3       1 <0>         0.1430
     32 N7         10.0810   88.8580   65.2780 N.3       1 <0>        -0.7414
     33 C26         8.9850   87.8750   65.3060 C.3       1 <0>         0.1527
     34 C27        10.0700   89.6590   66.5720 C.3       1 <0>         0.1430
     35 C28        11.2730   90.6520   66.5740 C.3       1 <0>         0.1090
     36 O1         13.2580   96.2310   60.0240 O.2       1 <0>        -0.5717
     37 C29        10.9860  102.3510   57.6940 C.3       1 <0>        -0.0550
     38 H1         16.4590  100.0740   49.5660 H         1 <0>         0.1498
     39 H2         14.4410   99.3690   50.9640 H         1 <0>         0.1561
     40 H3         16.1120  101.6720   54.3760 H         1 <0>         0.0243
     41 H4         18.2430  101.5700   50.6470 H         1 <0>         0.0298
     42 H5         12.5840   99.2390   52.1030 H         1 <0>         0.1610
     43 H6         10.7560   98.7040   53.7960 H         1 <0>         0.0281
     44 H7         14.2099  100.8239   57.5693 H         1 <0>         0.4574
     45 H8          9.4110  101.4100   59.7190 H         1 <0>         0.1443
     46 H9          9.6520   99.2900   61.1000 H         1 <0>         0.1729
     47 H10        13.2680   98.2410   58.8240 H         1 <0>         0.1457
     48 H11        10.7496   97.2709   61.6947 H         1 <0>         0.3204
     49 H12        14.6160   94.8480   61.7860 H         1 <0>         0.1727
     50 H13        14.5990   93.1860   63.6910 H         1 <0>         0.1396
     51 H14        10.3400   94.1640   64.4500 H         1 <0>         0.1396
     52 H15        10.3440   95.7830   62.5950 H         1 <0>         0.1727
     53 H16        13.2755   91.9162   65.3825 H         1 <0>         0.1075
     54 H17        12.2856   93.0852   66.3207 H         1 <0>         0.1075
     55 H18        11.1140   91.4567   63.2331 H         1 <0>         0.1096
     56 H19        12.1524   90.2108   64.0052 H         1 <0>         0.1096
     57 H20         9.0808   90.3301   64.0787 H         1 <0>         0.0748
     58 H21        10.0879   89.1651   63.1540 H         1 <0>         0.0748
     59 H22         9.0798   87.2456   66.2031 H         1 <0>         0.0575
     60 H23         9.0365   87.2427   64.4074 H         1 <0>         0.0575
     61 H24         8.0199   88.4024   65.3284 H         1 <0>         0.0575
     62 H25         9.1279   90.2218   66.6468 H         1 <0>         0.0748
     63 H26        10.1567   88.9738   67.4281 H         1 <0>         0.0748
     64 H27        12.2064   90.0701   66.5571 H         1 <0>         0.1096
     65 H28        11.2306   91.2504   67.4960 H         1 <0>         0.1096
     66 H29        10.0887  102.8665   58.0670 H         1 <0>         0.0501
     67 H30        10.8574  102.1168   56.6269 H         1 <0>         0.0501
     68 H31        11.8633  103.0019   57.8234 H         1 <0>         0.0501
     69 H32        10.3106   92.1812   65.4089 H         1 <0>         0.4443
@<TRIPOS>BOND
     1    1    2 ar
     2    1    6 ar
     3    1   38 1
     4    2    3 ar
     5    2   39 1
     6    3    4 ar
     7    3    7 1
     8    4    5 ar
     9    4   40 1
    10    5    6 ar
    11    6   41 1
    12    7    8 ar
    13    7   12 ar
    14    8    9 ar
    15    8   42 1
    16    9   10 ar
    17    9   43 1
    18   10   11 ar
    19   11   12 ar
    20   11   13 1
    21   13   14 1
    22   13   44 1
    23   14   15 ar
    24   14   19 ar
    25   15   16 ar
    26   15   37 1
    27   16   17 ar
    28   16   45 1
    29   17   18 ar
    30   17   46 1
    31   18   19 ar
    32   18   20 1
    33   19   47 1
    34   20   21 am
    35   20   48 1
    36   21   22 1
    37   21   36 2
    38   22   23 ar
    39   22   27 ar
    40   23   24 ar
    41   23   49 1
    42   24   25 ar
    43   24   50 1
    44   25   26 ar
    45   25   28 1
    46   26   27 ar
    47   26   51 1
    48   27   52 1
    49   28   29 1
    50   28   53 1
    51   28   54 1
    52   29   30 1
    53   29   35 1
    54   29   69 1
    55   30   31 1
    56   30   55 1
    57   30   56 1
    58   31   32 1
    59   31   57 1
    60   31   58 1
    61   32   33 1
    62   32   34 1
    63   33   59 1
    64   33   60 1
    65   33   61 1
    66   34   35 1
    67   34   62 1
    68   34   63 1
    69   35   64 1
    70   35   65 1
    71   37   66 1
    72   37   67 1
    73   37   68 1
@<TRIPOS>MOLECULE
4-[(4-methylpiperazin-4-ium-1-yl)methyl]-~{N}-[4-methyl-3-[[4-(3-pyridyl)pyrimidin-2-yl]amino]phenyl]benzamide
   69    73     0     0     0
SMALL
USER_CHARGES

@<TRIPOS>ATOM
      1 C1         16.3560  100.4060   50.6140 C.ar      1 <0>        -0.2510
      2 C2         15.2180  100.0120   51.4140 C.ar      1 <0>        -0.0574
      3 C3         15.0890  100.4530   52.7980 C.ar      1 <0>        -0.2757
      4 C4         16.1380  101.2980   53.3390 C.ar      1 <0>         0.4175
      5 N1         17.2200  101.6600   52.5430 N.ar      1 <0>        -0.6633
      6 C5         17.3560  101.2430   51.2150 C.ar      1 <0>         0.4054
      7 C6         13.9280  100.0780   53.6730 C.ar      1 <0>         0.5361
      8 C7         12.7230   99.4700   53.1730 C.ar      1 <0>        -0.4066
      9 C8         11.7040   99.1720   54.1140 C.ar      1 <0>         0.4620
     10 N2         11.8810   99.4640   55.4560 N.ar      1 <0>        -0.7323
     11 C9         13.0530  100.0500   55.9070 C.ar      1 <0>         0.8918
     12 N3         14.0460  100.3450   55.0230 N.ar      1 <0>        -0.7552
     13 N4         13.2630  100.3620   57.2530 N.pl3     1 <0>        -0.7605
     14 C10        12.3020  100.1090   58.2460 C.ar      1 <0>         0.1801
     15 C11        11.1950  101.0400   58.4880 C.ar      1 <0>        -0.0719
     16 C12        10.2510  100.7220   59.5240 C.ar      1 <0>        -0.1038
     17 C13        10.3860   99.5200   60.3090 C.ar      1 <0>        -0.1501
     18 C14        11.4560   98.6100   60.0860 C.ar      1 <0>         0.0604
     19 C15        12.4240   98.9210   59.0320 C.ar      1 <0>        -0.1987
     20 N5         11.5160   97.4360   60.9230 N.am      1 <0>        -0.4610
     21 C16        12.4460   96.4150   60.9100 C.2       1 <0>         0.6757
     22 C17        12.4720   95.4420   62.0420 C.ar      1 <0>        -0.1276
     23 C18        13.6890   94.6960   62.3640 C.ar      1 <0>        -0.0890
     24 C19        13.6820   93.7490   63.4490 C.ar      1 <0>        -0.1247
     25 C20        12.4630   93.5460   64.2140 C.ar      1 <0>        -0.0979
     26 C21        11.2740   94.3010   63.8790 C.ar      1 <0>        -0.1247
     27 C22        11.2720   95.2300   62.8170 C.ar      1 <0>        -0.0890
     28 C23        12.3710   92.5420   65.3680 C.3       1 <0>         0.2248
     29 N6         11.2300   91.5790   65.3640 N.3       1 <0>        -0.7570
     30 C24        11.2140   90.7780   64.0930 C.3       1 <0>         0.1521
     31 C25        10.0310   89.7760   64.0670 C.3       1 <0>         0.1063
     32 N7         10.0810   88.8580   65.2780 N.4       1 <0>        -0.6841
     33 C26         8.9850   87.8750   65.3060 C.3       1 <0>         0.0833
     34 C27        10.0700   89.6590   66.5720 C.3       1 <0>         0.1063
     35 C28        11.2730   90.6520   66.5740 C.3       1 <0>         0.1521
     36 O1         13.2580   96.2310   60.0240 O.2       1 <0>        -0.5802
     37 C29        10.9860  102.3510   57.6940 C.3       1 <0>        -0.0519
     38 H1         16.4590  100.0740   49.5660 H         1 <0>         0.1478
     39 H2         14.4410   99.3690   50.9640 H         1 <0>         0.1502
     40 H3         16.1120  101.6720   54.3760 H         1 <0>         0.0271
     41 H4         18.2430  101.5700   50.6470 H         1 <0>         0.0272
     42 H5         12.5840   99.2390   52.1030 H         1 <0>         0.1621
     43 H6         10.7560   98.7040   53.7960 H         1 <0>         0.0310
     44 H7         14.2099  100.8239   57.5693 H         1 <0>         0.4614
     45 H8          9.4110  101.4100   59.7190 H         1 <0>         0.1426
     46 H9          9.6520   99.2900   61.1000 H         1 <0>         0.1735
     47 H10        13.2680   98.2410   58.8240 H         1 <0>         0.1324
     48 H11        10.7496   97.2709   61.6947 H         1 <0>         0.3181
     49 H12        14.6160   94.8480   61.7860 H         1 <0>         0.1582
     50 H13        14.5990   93.1860   63.6910 H         1 <0>         0.1410
     51 H14        10.3400   94.1640   64.4500 H         1 <0>         0.1410
     52 H15        10.3440   95.7830   62.5950 H         1 <0>         0.1582
     53 H16        13.2755   91.9162   65.3825 H         1 <0>         0.0588
     54 H17        12.2856   93.0852   66.3207 H         1 <0>         0.0588
     55 H18        11.1140   91.4567   63.2331 H         1 <0>         0.0772
     56 H19        12.1524   90.2108   64.0052 H         1 <0>         0.0772
     57 H20         9.0808   90.3301   64.0787 H         1 <0>         0.1106
     58 H21        10.0879   89.1651   63.1540 H         1 <0>         0.1106
     59 H22         9.0798   87.2456   66.2031 H         1 <0>         0.1059
     60 H23         9.0365   87.2427   64.4074 H         1 <0>         0.1059
     61 H24         8.0199   88.4024   65.3284 H         1 <0>         0.1059
     62 H25         9.1279   90.2218   66.6468 H         1 <0>         0.1106
     63 H26        10.1567   88.9738   67.4281 H         1 <0>         0.1106
     64 H27        12.2064   90.0701   66.5571 H         1 <0>         0.0772
     65 H28        11.2306   91.2504   67.4960 H         1 <0>         0.0772
     66 H29        10.0887  102.8665   58.0670 H         1 <0>         0.0514
     67 H30        10.8574  102.1168   56.6269 H         1 <0>         0.0514
     68 H31        11.8633  103.0019   57.8234 H         1 <0>         0.0514
     69 H32        11.0061   88.2695   65.1892 H         1 <0>         0.4468
@<TRIPOS>BOND
     1    1    2 ar
     2    1    6 ar
     3    1   38 1
     4    2    3 ar
     5    2   39 1
     6    3    4 ar
     7    3    7 1
     8    4    5 ar
     9    4   40 1
    10    5    6 ar
    11    6   41 1
    12    7    8 ar
    13    7   12 ar
    14    8    9 ar
    15    8   42 1
    16    9   10 ar
    17    9   43 1
    18   10   11 ar
    19   11   12 ar
    20   11   13 1
    21   13   14 1
    22   13   44 1
    23   14   15 ar
    24   14   19 ar
    25   15   16 ar
    26   15   37 1
    27   16   17 ar
    28   16   45 1
    29   17   18 ar
    30   17   46 1
    31   18   19 ar
    32   18   20 1
    33   19   47 1
    34   20   21 am
    35   20   48 1
    36   21   22 1
    37   21   36 2
    38   22   23 ar
    39   22   27 ar
    40   23   24 ar
    41   23   49 1
    42   24   25 ar
    43   24   50 1
    44   25   26 ar
    45   25   28 1
    46   26   27 ar
    47   26   51 1
    48   27   52 1
    49   28   29 1
    50   28   53 1
    51   28   54 1
    52   29   30 1
    53   29   35 1
    54   30   31 1
    55   30   55 1
    56   30   56 1
    57   31   32 1
    58   31   57 1
    59   31   58 1
    60   32   33 1
    61   32   34 1
    62   32   69 1
    63   33   59 1
    64   33   60 1
    65   33   61 1
    66   34   35 1
    67   34   62 1
    68   34   63 1
    69   35   64 1
    70   35   65 1
    71   37   66 1
    72   37   67 1
    73   37   68 1
@<TRIPOS>MOLECULE
4-[(4-methylpiperazin-1-yl)methyl]-~{N}-[4-methyl-3-[[4-(3-pyridyl)pyrimidin-2-yl]amino]phenyl]benzamide
   68    72     0     0     0
SMALL
USER_CHARGES

@<TRIPOS>ATOM
      1 C1         16.3560  100.4060   50.6140 C.ar      1 <0>        -0.2506
      2 C2         15.2180  100.0120   51.4140 C.ar      1 <0>        -0.0576
      3 C3         15.0890  100.4530   52.7980 C.ar      1 <0>        -0.2754
      4 C4         16.1380  101.2980   53.3390 C.ar      1 <0>         0.4184
      5 N1         17.2200  101.6600   52.5430 N.ar      1 <0>        -0.6646
      6 C5         17.3560  101.2430   51.2150 C.ar      1 <0>         0.4036
      7 C6         13.9280  100.0780   53.6730 C.ar      1 <0>         0.5309
      8 C7         12.7230   99.4700   53.1730 C.ar      1 <0>        -0.3957
      9 C8         11.7040   99.1720   54.1140 C.ar      1 <0>         0.4595
     10 N2         11.8810   99.4640   55.4560 N.ar      1 <0>        -0.7297
     11 C9         13.0530  100.0500   55.9070 C.ar      1 <0>         0.8725
     12 N3         14.0460  100.3450   55.0230 N.ar      1 <0>        -0.7446
     13 N4         13.2630  100.3620   57.2530 N.pl3     1 <0>        -0.6995
     14 C10        12.3020  100.1090   58.2460 C.ar      1 <0>         0.1635
     15 C11        11.1950  101.0400   58.4880 C.ar      1 <0>        -0.1429
     16 C12        10.2510  100.7220   59.5240 C.ar      1 <0>        -0.0900
     17 C13        10.3860   99.5200   60.3090 C.ar      1 <0>        -0.1565
     18 C14        11.4560   98.6100   60.0860 C.ar      1 <0>         0.0779
     19 C15        12.4240   98.9210   59.0320 C.ar      1 <0>        -0.1923
     20 N5         11.5160   97.4360   60.9230 N.am      1 <0>        -0.4722
     21 C16        12.4460   96.4150   60.9100 C.2       1 <0>         0.6803
     22 C17        12.4720   95.4420   62.0420 C.ar      1 <0>        -0.1520
     23 C18        13.6890   94.6960   62.3640 C.ar      1 <0>        -0.0932
     24 C19        13.6820   93.7490   63.4490 C.ar      1 <0>        -0.1282
     25 C20        12.4630   93.5460   64.2140 C.ar      1 <0>        -0.0606
     26 C21        11.2740   94.3010   63.8790 C.ar      1 <0>        -0.1282
     27 C22        11.2720   95.2300   62.8170 C.ar      1 <0>        -0.0932
     28 C23        12.3710   92.5420   65.3680 C.3       1 <0>         0.2146
     29 N6         11.2300   91.5790   65.3640 N.3       1 <0>        -0.7417
     30 C24        11.2140   90.7780   64.0930 C.3       1 <0>         0.1725
     31 C25        10.0310   89.7760   64.0670 C.3       1 <0>         0.1700
     32 N7         10.0810   88.8580   65.2780 N.3       1 <0>        -0.7369
     33 C26         8.9850   87.8750   65.3060 C.3       1 <0>         0.1592
     34 C27        10.0700   89.6590   66.5720 C.3       1 <0>         0.1700
     35 C28        11.2730   90.6520   66.5740 C.3       1 <0>         0.1725
     36 O1         13.2580   96.2310   60.0240 O.2       1 <0>        -0.5828
     37 C29        10.9860  102.3510   57.6940 C.3       1 <0>        -0.0532
     38 H1         16.4590  100.0740   49.5660 H         1 <0>         0.1466
     39 H2         14.4410   99.3690   50.9640 H         1 <0>         0.1506
     40 H3         16.1120  101.6720   54.3760 H         1 <0>         0.0279
     41 H4         18.2430  101.5700   50.6470 H         1 <0>         0.0256
     42 H5         12.5840   99.2390   52.1030 H         1 <0>         0.1614
     43 H6         10.7560   98.7040   53.7960 H         1 <0>         0.0290
     44 H7         14.2099  100.8239   57.5693 H         1 <0>         0.4403
     45 H8          9.4110  101.4100   59.7190 H         1 <0>         0.1352
     46 H9          9.6520   99.2900   61.1000 H         1 <0>         0.1656
     47 H10        13.2680   98.2410   58.8240 H         1 <0>         0.1680
     48 H11        10.7496   97.2709   61.6947 H         1 <0>         0.3201
     49 H12        14.6160   94.8480   61.7860 H         1 <0>         0.1477
     50 H13        14.5990   93.1860   63.6910 H         1 <0>         0.1449
     51 H14        10.3400   94.1640   64.4500 H         1 <0>         0.1449
     52 H15        10.3440   95.7830   62.5950 H         1 <0>         0.1477
     53 H16        13.2755   91.9162   65.3825 H         1 <0>         0.0437
     54 H17        12.2856   93.0852   66.3207 H         1 <0>         0.0437
     55 H18        11.1140   91.4567   63.2331 H         1 <0>         0.0384
     56 H19        12.1524   90.2108   64.0052 H         1 <0>         0.0384
     57 H20         9.0808   90.3301   64.0787 H         1 <0>         0.0377
     58 H21        10.0879   89.1651   63.1540 H         1 <0>         0.0377
     59 H22         9.0798   87.2456   66.2031 H         1 <0>         0.0323
     60 H23         9.0365   87.2427   64.4074 H         1 <0>         0.0323
     61 H24         8.0199   88.4024   65.3284 H         1 <0>         0.0323
     62 H25         9.1279   90.2218   66.6468 H         1 <0>         0.0377
     63 H26        10.1567   88.9738   67.4281 H         1 <0>         0.0377
     64 H27        12.2064   90.0701   66.5571 H         1 <0>         0.0384
     65 H28        11.2306   91.2504   67.4960 H         1 <0>         0.0384
     66 H29        10.0887  102.8665   58.0670 H         1 <0>         0.0439
     67 H30        10.8574  102.1168   56.6269 H         1 <0>         0.0439
     68 H31        11.8633  103.0019   57.8234 H         1 <0>         0.0439
@<TRIPOS>BOND
     1    1    2 ar
     2    1    6 ar
     3    1   38 1
     4    2    3 ar
     5    2   39 1
     6    3    4 ar
     7    3    7 1
     8    4    5 ar
     9    4   40 1
    10    5    6 ar
    11    6   41 1
    12    7    8 ar
    13    7   12 ar
    14    8    9 ar
    15    8   42 1
    16    9   10 ar
    17    9   43 1
    18   10   11 ar
    19   11   12 ar
    20   11   13 1
    21   13   14 1
    22   13   44 1
    23   14   15 ar
    24   14   19 ar
    25   15   16 ar
    26   15   37 1
    27   16   17 ar
    28   16   45 1
    29   17   18 ar
    30   17   46 1
    31   18   19 ar
    32   18   20 1
    33   19   47 1
    34   20   21 am
    35   20   48 1
    36   21   22 1
    37   21   36 2
    38   22   23 ar
    39   22   27 ar
    40   23   24 ar
    41   23   49 1
    42   24   25 ar
    43   24   50 1
    44   25   26 ar
    45   25   28 1
    46   26   27 ar
    47   26   51 1
    48   27   52 1
    49   28   29 1
    50   28   53 1
    51   28   54 1
    52   29   30 1
    53   29   35 1
    54   30   31 1
    55   30   55 1
    56   30   56 1
    57   31   32 1
    58   31   57 1
    59   31   58 1
    60   32   33 1
    61   32   34 1
    62   33   59 1
    63   33   60 1
    64   33   61 1
    65   34   35 1
    66   34   62 1
    67   34   63 1
    68   35   64 1
    69   35   65 1
    70   37   66 1
    71   37   67 1
    72   37   68 1
@<TRIPOS>MOLECULE
4-[(4-methylpiperazin-1-ium-1-yl)methyl]-~{N}-[4-methyl-3-[(4-pyridin-1-ium-3-ylpyrimidin-2-yl)amino]phenyl]benzamide
   70    74     0     0     0
SMALL
USER_CHARGES

@<TRIPOS>ATOM
      1 C1         16.3560  100.4060   50.6140 C.ar      1 <0>        -0.1461
      2 C2         15.2180  100.0120   51.4140 C.ar      1 <0>         0.0308
      3 C3         15.0890  100.4530   52.7980 C.ar      1 <0>        -0.1343
      4 C4         16.1380  101.2980   53.3390 C.ar      1 <0>        -0.0237
      5 N1         17.2200  101.6600   52.5430 N.ar      1 <0>        -0.0814
      6 C5         17.3560  101.2430   51.2150 C.ar      1 <0>        -0.0166
      7 C6         13.9280  100.0780   53.6730 C.ar      1 <0>         0.4970
      8 C7         12.7230   99.4700   53.1730 C.ar      1 <0>        -0.4099
      9 C8         11.7040   99.1720   54.1140 C.ar      1 <0>         0.4853
     10 N2         11.8810   99.4640   55.4560 N.ar      1 <0>        -0.7025
     11 C9         13.0530  100.0500   55.9070 C.ar      1 <0>         0.9151
     12 N3         14.0460  100.3450   55.0230 N.ar      1 <0>        -0.7818
     13 N4         13.2630  100.3620   57.2530 N.pl3     1 <0>        -0.7222
     14 C10        12.3020  100.1090   58.2460 C.ar      1 <0>         0.1478
     15 C11        11.1950  101.0400   58.4880 C.ar      1 <0>        -0.0975
     16 C12        10.2510  100.7220   59.5240 C.ar      1 <0>        -0.0915
     17 C13        10.3860   99.5200   60.3090 C.ar      1 <0>        -0.1364
     18 C14        11.4560   98.6100   60.0860 C.ar      1 <0>         0.0652
     19 C15        12.4240   98.9210   59.0320 C.ar      1 <0>        -0.1623
     20 N5         11.5160   97.4360   60.9230 N.am      1 <0>        -0.4626
     21 C16        12.4460   96.4150   60.9100 C.2       1 <0>         0.6748
     22 C17        12.4720   95.4420   62.0420 C.ar      1 <0>        -0.1110
     23 C18        13.6890   94.6960   62.3640 C.ar      1 <0>        -0.0772
     24 C19        13.6820   93.7490   63.4490 C.ar      1 <0>        -0.1213
     25 C20        12.4630   93.5460   64.2140 C.ar      1 <0>        -0.1452
     26 C21        11.2740   94.3010   63.8790 C.ar      1 <0>        -0.1213
     27 C22        11.2720   95.2300   62.8170 C.ar      1 <0>        -0.0772
     28 C23        12.3710   92.5420   65.3680 C.3       1 <0>         0.1661
     29 N6         11.2300   91.5790   65.3640 N.4       1 <0>        -0.6882
     30 C24        11.2140   90.7780   64.0930 C.3       1 <0>         0.1093
     31 C25        10.0310   89.7760   64.0670 C.3       1 <0>         0.1431
     32 N7         10.0810   88.8580   65.2780 N.3       1 <0>        -0.7410
     33 C26         8.9850   87.8750   65.3060 C.3       1 <0>         0.1518
     34 C27        10.0700   89.6590   66.5720 C.3       1 <0>         0.1431
     35 C28        11.2730   90.6520   66.5740 C.3       1 <0>         0.1093
     36 O1         13.2580   96.2310   60.0240 O.2       1 <0>        -0.5574
     37 C29        10.9860  102.3510   57.6940 C.3       1 <0>        -0.0569
     38 H1         16.4590  100.0740   49.5660 H         1 <0>         0.2060
     39 H2         14.4410   99.3690   50.9640 H         1 <0>         0.2106
     40 H3         16.1120  101.6720   54.3760 H         1 <0>         0.2138
     41 H4         18.2430  101.5700   50.6470 H         1 <0>         0.2172
     42 H5         12.5840   99.2390   52.1030 H         1 <0>         0.1568
     43 H6         10.7560   98.7040   53.7960 H         1 <0>         0.0496
     44 H7         14.2099  100.8239   57.5693 H         1 <0>         0.4649
     45 H8          9.4110  101.4100   59.7190 H         1 <0>         0.1542
     46 H9          9.6520   99.2900   61.1000 H         1 <0>         0.1827
     47 H10        13.2680   98.2410   58.8240 H         1 <0>         0.1402
     48 H11        10.7496   97.2709   61.6947 H         1 <0>         0.3203
     49 H12        14.6160   94.8480   61.7860 H         1 <0>         0.1704
     50 H13        14.5990   93.1860   63.6910 H         1 <0>         0.1428
     51 H14        10.3400   94.1640   64.4500 H         1 <0>         0.1428
     52 H15        10.3440   95.7830   62.5950 H         1 <0>         0.1704
     53 H16        13.2755   91.9162   65.3825 H         1 <0>         0.1090
     54 H17        12.2856   93.0852   66.3207 H         1 <0>         0.1090
     55 H18        11.1140   91.4567   63.2331 H         1 <0>         0.1092
     56 H19        12.1524   90.2108   64.0052 H         1 <0>         0.1092
     57 H20         9.0808   90.3301   64.0787 H         1 <0>         0.0762
     58 H21        10.0879   89.1651   63.1540 H         1 <0>         0.0762
     59 H22         9.0798   87.2456   66.2031 H         1 <0>         0.0595
     60 H23         9.0365   87.2427   64.4074 H         1 <0>         0.0595
     61 H24         8.0199   88.4024   65.3284 H         1 <0>         0.0595
     62 H25         9.1279   90.2218   66.6468 H         1 <0>         0.0762
     63 H26        10.1567   88.9738   67.4281 H         1 <0>         0.0762
     64 H27        12.2064   90.0701   66.5571 H         1 <0>         0.1092
     65 H28        11.2306   91.2504   67.4960 H         1 <0>         0.1092
     66 H29        10.0887  102.8665   58.0670 H         1 <0>         0.0517
     67 H30        10.8574  102.1168   56.6269 H         1 <0>         0.0517
     68 H31        11.8633  103.0019   57.8234 H         1 <0>         0.0517
     69 H32        10.3106   92.1812   65.4089 H         1 <0>         0.4439
     70 H33        18.0146  102.3005   52.9532 H         1 <0>         0.3470
@<TRIPOS>BOND
     1    1    2 ar
     2    1    6 ar
     3    1   38 1
     4    2    3 ar
     5    2   39 1
     6    3    4 ar
     7    3    7 1
     8    4    5 ar
     9    4   40 1
    10    5    6 ar
    11    5   70 1
    12    6   41 1
    13    7    8 ar
    14    7   12 ar
    15    8    9 ar
    16    8   42 1
    17    9   10 ar
    18    9   43 1
    19   10   11 ar
    20   11   12 ar
    21   11   13 1
    22   13   14 1
    23   13   44 1
    24   14   15 ar
    25   14   19 ar
    26   15   16 ar
    27   15   37 1
    28   16   17 ar
    29   16   45 1
    30   17   18 ar
    31   17   46 1
    32   18   19 ar
    33   18   20 1
    34   19   47 1
    35   20   21 am
    36   20   48 1
    37   21   22 1
    38   21   36 2
    39   22   23 ar
    40   22   27 ar
    41   23   24 ar
    42   23   49 1
    43   24   25 ar
    44   24   50 1
    45   25   26 ar
    46   25   28 1
    47   26   27 ar
    48   26   51 1
    49   27   52 1
    50   28   29 1
    51   28   53 1
    52   28   54 1
    53   29   30 1
    54   29   35 1
    55   29   69 1
    56   30   31 1
    57   30   55 1
    58   30   56 1
    59   31   32 1
    60   31   57 1
    61   31   58 1
    62   32   33 1
    63   32   34 1
    64   33   59 1
    65   33   60 1
    66   33   61 1
    67   34   35 1
    68   34   62 1
    69   34   63 1
    70   35   64 1
    71   35   65 1
    72   37   66 1
    73   37   67 1
    74   37   68 1
@<TRIPOS>MOLECULE
4-[(4-methylpiperazin-4-ium-1-yl)methyl]-~{N}-[4-methyl-3-[(4-pyridin-1-ium-3-ylpyrimidin-2-yl)amino]phenyl]benzamide
   70    74     0     0     0
SMALL
USER_CHARGES

@<TRIPOS>ATOM
      1 C1         16.3560  100.4060   50.6140 C.ar      1 <0>        -0.1414
      2 C2         15.2180  100.0120   51.4140 C.ar      1 <0>         0.0245
      3 C3         15.0890  100.4530   52.7980 C.ar      1 <0>        -0.1300
      4 C4         16.1380  101.2980   53.3390 C.ar      1 <0>        -0.0183
      5 N1         17.2200  101.6600   52.5430 N.ar      1 <0>        -0.0816
      6 C5         17.3560  101.2430   51.2150 C.ar      1 <0>        -0.0209
      7 C6         13.9280  100.0780   53.6730 C.ar      1 <0>         0.4823
      8 C7         12.7230   99.4700   53.1730 C.ar      1 <0>        -0.4120
      9 C8         11.7040   99.1720   54.1140 C.ar      1 <0>         0.4847
     10 N2         11.8810   99.4640   55.4560 N.ar      1 <0>        -0.6951
     11 C9         13.0530  100.0500   55.9070 C.ar      1 <0>         0.9169
     12 N3         14.0460  100.3450   55.0230 N.ar      1 <0>        -0.7791
     13 N4         13.2630  100.3620   57.2530 N.pl3     1 <0>        -0.7287
     14 C10        12.3020  100.1090   58.2460 C.ar      1 <0>         0.1474
     15 C11        11.1950  101.0400   58.4880 C.ar      1 <0>        -0.0737
     16 C12        10.2510  100.7220   59.5240 C.ar      1 <0>        -0.0976
     17 C13        10.3860   99.5200   60.3090 C.ar      1 <0>        -0.1385
     18 C14        11.4560   98.6100   60.0860 C.ar      1 <0>         0.0755
     19 C15        12.4240   98.9210   59.0320 C.ar      1 <0>        -0.1937
     20 N5         11.5160   97.4360   60.9230 N.am      1 <0>        -0.4689
     21 C16        12.4460   96.4150   60.9100 C.2       1 <0>         0.6813
     22 C17        12.4720   95.4420   62.0420 C.ar      1 <0>        -0.1352
     23 C18        13.6890   94.6960   62.3640 C.ar      1 <0>        -0.0881
     24 C19        13.6820   93.7490   63.4490 C.ar      1 <0>        -0.1235
     25 C20        12.4630   93.5460   64.2140 C.ar      1 <0>        -0.0900
     26 C21        11.2740   94.3010   63.8790 C.ar      1 <0>        -0.1235
     27 C22        11.2720   95.2300   62.8170 C.ar      1 <0>        -0.0881
     28 C23        12.3710   92.5420   65.3680 C.3       1 <0>         0.2206
     29 N6         11.2300   91.5790   65.3640 N.3       1 <0>        -0.7537
     30 C24        11.2140   90.7780   64.0930 C.3       1 <0>         0.1490
     31 C25        10.0310   89.7760   64.0670 C.3       1 <0>         0.1060
     32 N7         10.0810   88.8580   65.2780 N.4       1 <0>        -0.6841
     33 C26         8.9850   87.8750   65.3060 C.3       1 <0>         0.0850
     34 C27        10.0700   89.6590   66.5720 C.3       1 <0>         0.1060
     35 C28        11.2730   90.6520   66.5740 C.3       1 <0>         0.1490
     36 O1         13.2580   96.2310   60.0240 O.2       1 <0>        -0.5678
     37 C29        10.9860  102.3510   57.6940 C.3       1 <0>        -0.0530
     38 H1         16.4590  100.0740   49.5660 H         1 <0>         0.2048
     39 H2         14.4410   99.3690   50.9640 H         1 <0>         0.2051
     40 H3         16.1120  101.6720   54.3760 H         1 <0>         0.2173
     41 H4         18.2430  101.5700   50.6470 H         1 <0>         0.2149
     42 H5         12.5840   99.2390   52.1030 H         1 <0>         0.1615
     43 H6         10.7560   98.7040   53.7960 H         1 <0>         0.0519
     44 H7         14.2099  100.8239   57.5693 H         1 <0>         0.4645
     45 H8          9.4110  101.4100   59.7190 H         1 <0>         0.1505
     46 H9          9.6520   99.2900   61.1000 H         1 <0>         0.1848
     47 H10        13.2680   98.2410   58.8240 H         1 <0>         0.1334
     48 H11        10.7496   97.2709   61.6947 H         1 <0>         0.3196
     49 H12        14.6160   94.8480   61.7860 H         1 <0>         0.1562
     50 H13        14.5990   93.1860   63.6910 H         1 <0>         0.1442
     51 H14        10.3400   94.1640   64.4500 H         1 <0>         0.1442
     52 H15        10.3440   95.7830   62.5950 H         1 <0>         0.1562
     53 H16        13.2755   91.9162   65.3825 H         1 <0>         0.0606
     54 H17        12.2856   93.0852   66.3207 H         1 <0>         0.0606
     55 H18        11.1140   91.4567   63.2331 H         1 <0>         0.0776
     56 H19        12.1524   90.2108   64.0052 H         1 <0>         0.0776
     57 H20         9.0808   90.3301   64.0787 H         1 <0>         0.1123
     58 H21        10.0879   89.1651   63.1540 H         1 <0>         0.1123
     59 H22         9.0798   87.2456   66.2031 H         1 <0>         0.1074
     60 H23         9.0365   87.2427   64.4074 H         1 <0>         0.1074
     61 H24         8.0199   88.4024   65.3284 H         1 <0>         0.1074
     62 H25         9.1279   90.2218   66.6468 H         1 <0>         0.1123
     63 H26        10.1567   88.9738   67.4281 H         1 <0>         0.1123
     64 H27        12.2064   90.0701   66.5571 H         1 <0>         0.0776
     65 H28        11.2306   91.2504   67.4960 H         1 <0>         0.0776
     66 H29        10.0887  102.8665   58.0670 H         1 <0>         0.0512
     67 H30        10.8574  102.1168   56.6269 H         1 <0>         0.0512
     68 H31        11.8633  103.0019   57.8234 H         1 <0>         0.0512
     69 H32        11.0061   88.2695   65.1892 H         1 <0>         0.4466
     70 H33        18.0146  102.3005   52.9532 H         1 <0>         0.3463
@<TRIPOS>BOND
     1    1    2 ar
     2    1    6 ar
     3    1   38 1
     4    2    3 ar
     5    2   39 1
     6    3    4 ar
     7    3    7 1
     8    4    5 ar
     9    4   40 1
    10    5    6 ar
    11    5   70 1
    12    6   41 1
    13    7    8 ar
    14    7   12 ar
    15    8    9 ar
    16    8   42 1
    17    9   10 ar
    18    9   43 1
    19   10   11 ar
    20   11   12 ar
    21   11   13 1
    22   13   14 1
    23   13   44 1
    24   14   15 ar
    25   14   19 ar
    26   15   16 ar
    27   15   37 1
    28   16   17 ar
    29   16   45 1
    30   17   18 ar
    31   17   46 1
    32   18   19 ar
    33   18   20 1
    34   19   47 1
    35   20   21 am
    36   20   48 1
    37   21   22 1
    38   21   36 2
    39   22   23 ar
    40   22   27 ar
    41   23   24 ar
    42   23   49 1
    43   24   25 ar
    44   24   50 1
    45   25   26 ar
    46   25   28 1
    47   26   27 ar
    48   26   51 1
    49   27   52 1
    50   28   29 1
    51   28   53 1
    52   28   54 1
    53   29   30 1
    54   29   35 1
    55   30   31 1
    56   30   55 1
    57   30   56 1
    58   31   32 1
    59   31   57 1
    60   31   58 1
    61   32   33 1
    62   32   34 1
    63   32   69 1
    64   33   59 1
    65   33   60 1
    66   33   61 1
    67   34   35 1
    68   34   62 1
    69   34   63 1
    70   35   64 1
    71   35   65 1
    72   37   66 1
    73   37   67 1
    74   37   68 1
