@<TRIPOS>MOLECULE
~{N}-(2-chloro-6-methyl-phenyl)-2-[[6-[4-(2-hydroxyethyl)piperazin-1-yl]-2-methyl-pyrimidin-1-ium-4-yl]amino]thiazole-5-carboxamide
   60    63     0     0     0
SMALL
USER_CHARGES

@<TRIPOS>ATOM
      1 C1          2.8905    1.0688    8.3231 C.2       1 <0>         0.3763
      2 C2          3.9713    1.9243    8.3671 C.2       1 <0>        -0.2535
      3 S1          4.5685    2.1789    6.7797 S.3       1 <0>         0.0612
      4 C3          3.3441    1.1375    6.1785 C.2       1 <0>         0.5504
      5 N1          2.5291    0.6169    7.0689 N.2       1 <0>        -0.6154
      6 N2          3.2675    0.8919    4.7930 N.pl3     1 <0>        -0.7711
      7 C4          2.3952    0.1019    4.0049 C.ar      1 <0>         0.7833
      8 C5          2.6085    0.0868    2.6416 C.ar      1 <0>        -0.4037
      9 C6          1.7377   -0.6944    1.9097 C.ar      1 <0>         0.3280
     10 N3          0.7329   -1.4101    2.4558 N.ar      1 <0>        -0.3735
     11 C7          0.6285   -1.3130    3.7949 C.ar      1 <0>         0.6235
     12 N4          1.4110   -0.5885    4.6174 N.ar      1 <0>        -0.6774
     13 C8         -0.4709   -2.0903    4.4354 C.3       1 <0>        -0.1759
     14 N5          1.9200   -0.7367    0.5229 N.pl3     1 <0>        -0.6634
     15 C9          1.5400   -1.9653   -0.1857 C.3       1 <0>         0.1928
     16 C10         2.2590   -2.0516   -1.5339 C.3       1 <0>         0.1661
     17 N6          2.0340   -0.8383   -2.3295 N.3       1 <0>        -0.7401
     18 C11         2.5419    0.3340   -1.6066 C.3       1 <0>         0.1661
     19 C12         1.8332    0.4998   -0.2600 C.3       1 <0>         0.1928
     20 C13         2.6799   -0.9549   -3.6364 C.3       1 <0>         0.1622
     21 C14         1.8193   -1.7892   -4.5775 C.3       1 <0>         0.1324
     22 O1          2.4674   -1.8879   -5.8393 O.3       1 <0>        -0.5972
     23 C15         4.5926    2.5621    9.4786 C.2       1 <0>         0.7103
     24 O2          5.5825    3.3245    9.3610 O.2       1 <0>        -0.5756
     25 N7          4.0056    2.3222   10.7453 N.am      1 <0>        -0.4534
     26 C16         4.3654    2.8325   12.0181 C.ar      1 <0>         0.0352
     27 C17         3.4388    3.5826   12.7423 C.ar      1 <0>        -0.0455
     28 C18         3.7798    4.0907   13.9958 C.ar      1 <0>        -0.1176
     29 C19         5.0475    3.8487   14.5250 C.ar      1 <0>        -0.1138
     30 C20         5.9741    3.0986   13.8008 C.ar      1 <0>        -0.1121
     31 C21         5.6330    2.5905   12.5473 C.ar      1 <0>        -0.0026
     32 Cl1         6.8138    1.6671   11.6873 Cl        1 <0>        -0.0997
     33 C22         2.0725    3.8600   12.2035 C.3       1 <0>        -0.0608
     34 H1          2.3231    0.7380    9.1833 H         1 <0>         0.0633
     35 H2          3.9878    1.3656    4.1098 H         1 <0>         0.4764
     36 H3          3.4079    0.6519    2.1761 H         1 <0>         0.1874
     37 H4         -0.4493   -1.9279    5.5231 H         1 <0>         0.0977
     38 H5         -0.3357   -3.1608    4.2217 H         1 <0>         0.0977
     39 H6         -1.4387   -1.7556    4.0338 H         1 <0>         0.0977
     40 H7          1.8156   -2.8395    0.4225 H         1 <0>         0.0613
     41 H8          0.4538   -1.9673   -0.3596 H         1 <0>         0.0613
     42 H9          3.3399   -2.1677   -1.3662 H         1 <0>         0.0607
     43 H10         1.8802   -2.9175   -2.0967 H         1 <0>         0.0607
     44 H11         3.6200    0.2137   -1.4246 H         1 <0>         0.0607
     45 H12         2.3703    1.2386   -2.2085 H         1 <0>         0.0607
     46 H13         0.7764    0.7459   -0.4408 H         1 <0>         0.0613
     47 H14         2.3107    1.3201    0.2960 H         1 <0>         0.0613
     48 H15         2.8172    0.0474   -4.0682 H         1 <0>         0.0605
     49 H16         3.6597   -1.4410   -3.5191 H         1 <0>         0.0605
     50 H17         1.6813   -2.7948   -4.1536 H         1 <0>         0.0303
     51 H18         0.8389   -1.3064   -4.7027 H         1 <0>         0.0303
     52 H19         1.9974   -2.4553   -6.6561 H         1 <0>         0.4136
     53 H20         3.1382    1.6512   10.8313 H         1 <0>         0.3250
     54 H21         3.0654    4.6767   14.5680 H         1 <0>         0.1461
     55 H22         5.3130    4.2442   15.5010 H         1 <0>         0.1472
     56 H23         6.9577    2.9195   14.2277 H         1 <0>         0.1565
     57 H24         1.5078    4.4638   12.9292 H         1 <0>         0.0553
     58 H25         1.5470    2.9094   12.0296 H         1 <0>         0.0553
     59 H26         2.1572    4.4109   11.2552 H         1 <0>         0.0553
     60 H27         0.0745   -2.0129    1.8131 H         1 <0>         0.3270
@<TRIPOS>BOND
     1    1    5 1
     2    1    2 2
     3    1   34 1
     4    2    3 1
     5    2   23 1
     6    3    4 1
     7    4    5 2
     8    4    6 1
     9    6    7 1
    10    6   35 1
    11    7   12 ar
    12    7    8 ar
    13    8    9 ar
    14    8   36 1
    15    9   10 ar
    16    9   14 1
    17   10   11 ar
    18   10   60 1
    19   11   12 ar
    20   11   13 1
    21   13   37 1
    22   13   38 1
    23   13   39 1
    24   14   19 1
    25   14   15 1
    26   15   16 1
    27   15   40 1
    28   15   41 1
    29   16   17 1
    30   16   42 1
    31   16   43 1
    32   17   18 1
    33   17   20 1
    34   18   19 1
    35   18   44 1
    36   18   45 1
    37   19   46 1
    38   19   47 1
    39   20   21 1
    40   20   48 1
    41   20   49 1
    42   21   22 1
    43   21   50 1
    44   21   51 1
    45   22   52 1
    46   23   24 2
    47   23   25 am
    48   25   26 1
    49   25   53 1
    50   26   31 ar
    51   26   27 ar
    52   27   28 ar
    53   27   33 1
    54   28   29 ar
    55   28   54 1
    56   29   30 ar
    57   29   55 1
    58   30   31 ar
    59   30   56 1
    60   31   32 1
    61   33   57 1
    62   33   58 1
    63   33   59 1
@<TRIPOS>MOLECULE
~{N}-(2-chloro-6-methyl-phenyl)-2-[[6-[4-(2-hydroxyethyl)piperazin-4-ium-1-yl]-2-methyl-pyrimidin-4-yl]amino]thiazole-5-carboxamide
   60    63     0     0     0
SMALL
USER_CHARGES

@<TRIPOS>ATOM
      1 C1          2.8905    1.0688    8.3231 C.2       1 <0>         0.4226
      2 C2          3.9713    1.9243    8.3671 C.2       1 <0>        -0.2541
      3 S1          4.5685    2.1789    6.7797 S.3       1 <0>        -0.1081
      4 C3          3.3441    1.1375    6.1785 C.2       1 <0>         0.6259
      5 N1          2.5291    0.6169    7.0689 N.2       1 <0>        -0.6258
      6 N2          3.2675    0.8919    4.7930 N.pl3     1 <0>        -0.8180
      7 C4          2.3952    0.1019    4.0049 C.ar      1 <0>         0.7026
      8 C5          2.6085    0.0868    2.6416 C.ar      1 <0>        -0.4057
      9 C6          1.7377   -0.6944    1.9097 C.ar      1 <0>         0.6294
     10 N3          0.7329   -1.4101    2.4558 N.ar      1 <0>        -0.7631
     11 C7          0.6285   -1.3130    3.7949 C.ar      1 <0>         0.7079
     12 N4          1.4110   -0.5885    4.6174 N.ar      1 <0>        -0.6879
     13 C8         -0.4709   -2.0903    4.4354 C.3       1 <0>        -0.1415
     14 N5          1.9200   -0.7367    0.5229 N.pl3     1 <0>        -0.7577
     15 C9          1.5400   -1.9653   -0.1857 C.3       1 <0>         0.1612
     16 C10         2.2590   -2.0516   -1.5339 C.3       1 <0>         0.1052
     17 N6          2.0340   -0.8383   -2.3295 N.4       1 <0>        -0.6832
     18 C11         2.5419    0.3340   -1.6066 C.3       1 <0>         0.1052
     19 C12         1.8332    0.4998   -0.2600 C.3       1 <0>         0.1612
     20 C13         2.6799   -0.9549   -3.6364 C.3       1 <0>         0.0919
     21 C14         1.8193   -1.7892   -4.5775 C.3       1 <0>         0.1183
     22 O1          2.4674   -1.8879   -5.8393 O.3       1 <0>        -0.5791
     23 C15         4.5926    2.5621    9.4786 C.2       1 <0>         0.7181
     24 O2          5.5825    3.3245    9.3610 O.2       1 <0>        -0.5530
     25 N7          4.0056    2.3222   10.7453 N.am      1 <0>        -0.4802
     26 C16         4.3654    2.8325   12.0181 C.ar      1 <0>         0.0470
     27 C17         3.4388    3.5826   12.7423 C.ar      1 <0>        -0.0476
     28 C18         3.7798    4.0907   13.9958 C.ar      1 <0>        -0.1176
     29 C19         5.0475    3.8487   14.5250 C.ar      1 <0>        -0.1194
     30 C20         5.9741    3.0986   13.8008 C.ar      1 <0>        -0.1146
     31 C21         5.6330    2.5905   12.5473 C.ar      1 <0>        -0.0062
     32 Cl1         6.8138    1.6671   11.6873 Cl        1 <0>        -0.1086
     33 C22         2.0725    3.8600   12.2035 C.3       1 <0>        -0.0637
     34 H1          2.3231    0.7380    9.1833 H         1 <0>         0.0736
     35 H2          3.9878    1.3656    4.1098 H         1 <0>         0.4512
     36 H3          3.4079    0.6519    2.1761 H         1 <0>         0.1611
     37 H4         -0.4493   -1.9279    5.5231 H         1 <0>         0.0749
     38 H5         -0.3357   -3.1608    4.2217 H         1 <0>         0.0749
     39 H6         -1.4387   -1.7556    4.0338 H         1 <0>         0.0749
     40 H7          1.8156   -2.8395    0.4225 H         1 <0>         0.0867
     41 H8          0.4538   -1.9673   -0.3596 H         1 <0>         0.0867
     42 H9          3.3399   -2.1677   -1.3662 H         1 <0>         0.1090
     43 H10         1.8802   -2.9175   -2.0967 H         1 <0>         0.1090
     44 H11         3.6200    0.2137   -1.4246 H         1 <0>         0.1090
     45 H12         2.3703    1.2386   -2.2085 H         1 <0>         0.1090
     46 H13         0.7764    0.7459   -0.4408 H         1 <0>         0.0867
     47 H14         2.3107    1.3201    0.2960 H         1 <0>         0.0867
     48 H15         2.8172    0.0474   -4.0682 H         1 <0>         0.1197
     49 H16         3.6597   -1.4410   -3.5191 H         1 <0>         0.1197
     50 H17         1.6813   -2.7948   -4.1536 H         1 <0>         0.0457
     51 H18         0.8389   -1.3064   -4.7027 H         1 <0>         0.0457
     52 H19         1.9974   -2.4553   -6.6561 H         1 <0>         0.4418
     53 H20         3.1382    1.6512   10.8313 H         1 <0>         0.3170
     54 H21         3.0654    4.6767   14.5680 H         1 <0>         0.1442
     55 H22         5.3130    4.2442   15.5010 H         1 <0>         0.1445
     56 H23         6.9577    2.9195   14.2277 H         1 <0>         0.1528
     57 H24         1.5078    4.4638   12.9292 H         1 <0>         0.0566
     58 H25         1.5470    2.9094   12.0296 H         1 <0>         0.0566
     59 H26         2.1572    4.4109   11.2552 H         1 <0>         0.0566
     60 H27         0.9536   -0.7148   -2.4953 H         1 <0>         0.4438
@<TRIPOS>BOND
     1    1    5 1
     2    1    2 2
     3    1   34 1
     4    2    3 1
     5    2   23 1
     6    3    4 1
     7    4    5 2
     8    4    6 1
     9    6    7 1
    10    6   35 1
    11    7   12 ar
    12    7    8 ar
    13    8    9 ar
    14    8   36 1
    15    9   10 ar
    16    9   14 1
    17   10   11 ar
    18   11   12 ar
    19   11   13 1
    20   13   37 1
    21   13   38 1
    22   13   39 1
    23   14   19 1
    24   14   15 1
    25   15   16 1
    26   15   40 1
    27   15   41 1
    28   16   17 1
    29   16   42 1
    30   16   43 1
    31   17   18 1
    32   17   20 1
    33   17   60 1
    34   18   19 1
    35   18   44 1
    36   18   45 1
    37   19   46 1
    38   19   47 1
    39   20   21 1
    40   20   48 1
    41   20   49 1
    42   21   22 1
    43   21   50 1
    44   21   51 1
    45   22   52 1
    46   23   24 2
    47   23   25 am
    48   25   26 1
    49   25   53 1
    50   26   31 ar
    51   26   27 ar
    52   27   28 ar
    53   27   33 1
    54   28   29 ar
    55   28   54 1
    56   29   30 ar
    57   29   55 1
    58   30   31 ar
    59   30   56 1
    60   31   32 1
    61   33   57 1
    62   33   58 1
    63   33   59 1
@<TRIPOS>MOLECULE
~{N}-(2-chloro-6-methyl-phenyl)-2-[[6-[4-(2-hydroxyethyl)piperazin-1-yl]-2-methyl-pyrimidin-4-yl]amino]thiazole-5-carboxamide
   59    62     0     0     0
SMALL
USER_CHARGES

@<TRIPOS>ATOM
      1 C1          2.8905    1.0688    8.3231 C.2       1 <0>         0.4039
      2 C2          3.9713    1.9243    8.3671 C.2       1 <0>        -0.2998
      3 S1          4.5685    2.1789    6.7797 S.3       1 <0>        -0.0622
      4 C3          3.3441    1.1375    6.1785 C.2       1 <0>         0.6650
      5 N1          2.5291    0.6169    7.0689 N.2       1 <0>        -0.6459
      6 N2          3.2675    0.8919    4.7930 N.pl3     1 <0>        -0.8346
      7 C4          2.3952    0.1019    4.0049 C.ar      1 <0>         0.7020
      8 C5          2.6085    0.0868    2.6416 C.ar      1 <0>        -0.4489
      9 C6          1.7377   -0.6944    1.9097 C.ar      1 <0>         0.6906
     10 N3          0.7329   -1.4101    2.4558 N.ar      1 <0>        -0.7646
     11 C7          0.6285   -1.3130    3.7949 C.ar      1 <0>         0.6980
     12 N4          1.4110   -0.5885    4.6174 N.ar      1 <0>        -0.7145
     13 C8         -0.4709   -2.0903    4.4354 C.3       1 <0>        -0.1359
     14 N5          1.9200   -0.7367    0.5229 N.pl3     1 <0>        -0.7650
     15 C9          1.5400   -1.9653   -0.1857 C.3       1 <0>         0.1993
     16 C10         2.2590   -2.0516   -1.5339 C.3       1 <0>         0.1687
     17 N6          2.0340   -0.8383   -2.3295 N.3       1 <0>        -0.7447
     18 C11         2.5419    0.3340   -1.6066 C.3       1 <0>         0.1687
     19 C12         1.8332    0.4998   -0.2600 C.3       1 <0>         0.1993
     20 C13         2.6799   -0.9549   -3.6364 C.3       1 <0>         0.1715
     21 C14         1.8193   -1.7892   -4.5775 C.3       1 <0>         0.1294
     22 O1          2.4674   -1.8879   -5.8393 O.3       1 <0>        -0.6051
     23 C15         4.5926    2.5621    9.4786 C.2       1 <0>         0.7212
     24 O2          5.5825    3.3245    9.3610 O.2       1 <0>        -0.5942
     25 N7          4.0056    2.3222   10.7453 N.am      1 <0>        -0.4668
     26 C16         4.3654    2.8325   12.0181 C.ar      1 <0>         0.0593
     27 C17         3.4388    3.5826   12.7423 C.ar      1 <0>        -0.0510
     28 C18         3.7798    4.0907   13.9958 C.ar      1 <0>        -0.1202
     29 C19         5.0475    3.8487   14.5250 C.ar      1 <0>        -0.1293
     30 C20         5.9741    3.0986   13.8008 C.ar      1 <0>        -0.1155
     31 C21         5.6330    2.5905   12.5473 C.ar      1 <0>        -0.0131
     32 Cl1         6.8138    1.6671   11.6873 Cl        1 <0>        -0.1010
     33 C22         2.0725    3.8600   12.2035 C.3       1 <0>        -0.0591
     34 H1          2.3231    0.7380    9.1833 H         1 <0>         0.0466
     35 H2          3.9878    1.3656    4.1098 H         1 <0>         0.4584
     36 H3          3.4079    0.6519    2.1761 H         1 <0>         0.1530
     37 H4         -0.4493   -1.9279    5.5231 H         1 <0>         0.0650
     38 H5         -0.3357   -3.1608    4.2217 H         1 <0>         0.0650
     39 H6         -1.4387   -1.7556    4.0338 H         1 <0>         0.0650
     40 H7          1.8156   -2.8395    0.4225 H         1 <0>         0.0521
     41 H8          0.4538   -1.9673   -0.3596 H         1 <0>         0.0521
     42 H9          3.3399   -2.1677   -1.3662 H         1 <0>         0.0407
     43 H10         1.8802   -2.9175   -2.0967 H         1 <0>         0.0407
     44 H11         3.6200    0.2137   -1.4246 H         1 <0>         0.0407
     45 H12         2.3703    1.2386   -2.2085 H         1 <0>         0.0407
     46 H13         0.7764    0.7459   -0.4408 H         1 <0>         0.0521
     47 H14         2.3107    1.3201    0.2960 H         1 <0>         0.0521
     48 H15         2.8172    0.0474   -4.0682 H         1 <0>         0.0478
     49 H16         3.6597   -1.4410   -3.5191 H         1 <0>         0.0478
     50 H17         1.6813   -2.7948   -4.1536 H         1 <0>         0.0292
     51 H18         0.8389   -1.3064   -4.7027 H         1 <0>         0.0292
     52 H19         1.9974   -2.4553   -6.6561 H         1 <0>         0.4032
     53 H20         3.1382    1.6512   10.8313 H         1 <0>         0.3231
     54 H21         3.0654    4.6767   14.5680 H         1 <0>         0.1379
     55 H22         5.3130    4.2442   15.5010 H         1 <0>         0.1386
     56 H23         6.9577    2.9195   14.2277 H         1 <0>         0.1480
     57 H24         1.5078    4.4638   12.9292 H         1 <0>         0.0553
     58 H25         1.5470    2.9094   12.0296 H         1 <0>         0.0553
     59 H26         2.1572    4.4109   11.2552 H         1 <0>         0.0553
@<TRIPOS>BOND
     1    1    5 1
     2    1    2 2
     3    1   34 1
     4    2    3 1
     5    2   23 1
     6    3    4 1
     7    4    5 2
     8    4    6 1
     9    6    7 1
    10    6   35 1
    11    7   12 ar
    12    7    8 ar
    13    8    9 ar
    14    8   36 1
    15    9   10 ar
    16    9   14 1
    17   10   11 ar
    18   11   12 ar
    19   11   13 1
    20   13   37 1
    21   13   38 1
    22   13   39 1
    23   14   19 1
    24   14   15 1
    25   15   16 1
    26   15   40 1
    27   15   41 1
    28   16   17 1
    29   16   42 1
    30   16   43 1
    31   17   18 1
    32   17   20 1
    33   18   19 1
    34   18   44 1
    35   18   45 1
    36   19   46 1
    37   19   47 1
    38   20   21 1
    39   20   48 1
    40   20   49 1
    41   21   22 1
    42   21   50 1
    43   21   51 1
    44   22   52 1
    45   23   24 2
    46   23   25 am
    47   25   26 1
    48   25   53 1
    49   26   31 ar
    50   26   27 ar
    51   27   28 ar
    52   27   33 1
    53   28   29 ar
    54   28   54 1
    55   29   30 ar
    56   29   55 1
    57   30   31 ar
    58   30   56 1
    59   31   32 1
    60   33   57 1
    61   33   58 1
    62   33   59 1
@<TRIPOS>MOLECULE
(~{Z})-[5-[(2-chloro-6-methyl-phenyl)carbamoyl]thiazol-2-yl]-[6-[4-(2-hydroxyethyl)piperazin-4-ium-1-yl]-2-methyl-1~{H}-pyrimidin-4-ylidene]ammonium
   61    64     0     0     0
SMALL
USER_CHARGES

@<TRIPOS>ATOM
      1 C1          2.8905    1.0688    8.3231 C.2       1 <0>         0.3683
      2 C2          3.9713    1.9243    8.3671 C.2       1 <0>        -0.2577
      3 S1          4.5685    2.1789    6.7797 S.3       1 <0>         0.1956
      4 C3          3.3441    1.1375    6.1785 C.2       1 <0>         0.3066
      5 N1          2.5291    0.6169    7.0689 N.2       1 <0>        -0.5990
      6 N2          3.2675    0.8919    4.7930 N.pl3     1 <0>        -0.2922
      7 C4          2.3952    0.1019    4.0049 C.cat     1 <0>         0.6176
      8 C5          2.6085    0.0868    2.6416 C.2       1 <0>        -0.3753
      9 C6          1.7377   -0.6944    1.9097 C.2       1 <0>         0.4118
     10 N3          0.7329   -1.4101    2.4558 N.pl3     1 <0>        -0.7037
     11 C7          0.6285   -1.3130    3.7949 C.2       1 <0>         0.7121
     12 N4          1.4110   -0.5885    4.6174 N.2       1 <0>        -0.6569
     13 C8         -0.4709   -2.0903    4.4354 C.3       1 <0>        -0.1605
     14 N5          1.9200   -0.7367    0.5229 N.pl3     1 <0>        -0.7576
     15 C9          1.5400   -1.9653   -0.1857 C.3       1 <0>         0.2049
     16 C10         2.2590   -2.0516   -1.5339 C.3       1 <0>         0.0812
     17 N6          2.0340   -0.8383   -2.3295 N.4       1 <0>        -0.6801
     18 C11         2.5419    0.3340   -1.6066 C.3       1 <0>         0.0812
     19 C12         1.8332    0.4998   -0.2600 C.3       1 <0>         0.2049
     20 C13         2.6799   -0.9549   -3.6364 C.3       1 <0>         0.0894
     21 C14         1.8193   -1.7892   -4.5775 C.3       1 <0>         0.1211
     22 O1          2.4674   -1.8879   -5.8393 O.3       1 <0>        -0.5728
     23 C15         4.5926    2.5621    9.4786 C.2       1 <0>         0.7022
     24 O2          5.5825    3.3245    9.3610 O.2       1 <0>        -0.5710
     25 N7          4.0056    2.3222   10.7453 N.am      1 <0>        -0.4438
     26 C16         4.3654    2.8325   12.0181 C.ar      1 <0>         0.0248
     27 C17         3.4388    3.5826   12.7423 C.ar      1 <0>        -0.0430
     28 C18         3.7798    4.0907   13.9958 C.ar      1 <0>        -0.1155
     29 C19         5.0475    3.8487   14.5250 C.ar      1 <0>        -0.1061
     30 C20         5.9741    3.0986   13.8008 C.ar      1 <0>        -0.1096
     31 C21         5.6330    2.5905   12.5473 C.ar      1 <0>         0.0010
     32 Cl1         6.8138    1.6671   11.6873 Cl        1 <0>        -0.1020
     33 C22         2.0725    3.8600   12.2035 C.3       1 <0>        -0.0612
     34 H1          2.3231    0.7380    9.1833 H         1 <0>         0.0713
     35 H2          3.4079    0.6519    2.1761 H         1 <0>         0.1909
     36 H3         -0.4493   -1.9279    5.5231 H         1 <0>         0.1066
     37 H4         -0.3357   -3.1608    4.2217 H         1 <0>         0.1066
     38 H5         -1.4387   -1.7556    4.0338 H         1 <0>         0.1066
     39 H6          1.8156   -2.8395    0.4225 H         1 <0>         0.0990
     40 H7          0.4538   -1.9673   -0.3596 H         1 <0>         0.0990
     41 H8          3.3399   -2.1677   -1.3662 H         1 <0>         0.1217
     42 H9          1.8802   -2.9175   -2.0967 H         1 <0>         0.1217
     43 H10         3.6200    0.2137   -1.4246 H         1 <0>         0.1217
     44 H11         2.3703    1.2386   -2.2085 H         1 <0>         0.1217
     45 H12         0.7764    0.7459   -0.4408 H         1 <0>         0.0990
     46 H13         2.3107    1.3201    0.2960 H         1 <0>         0.0990
     47 H14         2.8172    0.0474   -4.0682 H         1 <0>         0.1276
     48 H15         3.6597   -1.4410   -3.5191 H         1 <0>         0.1276
     49 H16         1.6813   -2.7948   -4.1536 H         1 <0>         0.0475
     50 H17         0.8389   -1.3064   -4.7027 H         1 <0>         0.0475
     51 H18         1.9974   -2.4553   -6.6561 H         1 <0>         0.4529
     52 H19         3.1382    1.6512   10.8313 H         1 <0>         0.3254
     53 H20         3.0654    4.6767   14.5680 H         1 <0>         0.1506
     54 H21         5.3130    4.2442   15.5010 H         1 <0>         0.1540
     55 H22         6.9577    2.9195   14.2277 H         1 <0>         0.1606
     56 H23         1.5078    4.4638   12.9292 H         1 <0>         0.0556
     57 H24         1.5470    2.9094   12.0296 H         1 <0>         0.0556
     58 H25         2.1572    4.4109   11.2552 H         1 <0>         0.0556
     59 H26         0.9536   -0.7148   -2.4953 H         1 <0>         0.4521
     60 H27         0.0745   -2.0129    1.8131 H         1 <0>         0.4761
     61 H28         4.0766    1.4626    4.3138 H         1 <0>         0.3322
@<TRIPOS>BOND
     1    1    5 1
     2    1    2 2
     3    1   34 1
     4    2    3 1
     5    2   23 1
     6    3    4 1
     7    4    5 2
     8    4    6 1
     9    6    7 2
    10    6   61 1
    11    7   12 1
    12    7    8 1
    13    8    9 2
    14    8   35 1
    15    9   10 1
    16    9   14 1
    17   10   11 1
    18   10   60 1
    19   11   12 2
    20   11   13 1
    21   13   36 1
    22   13   37 1
    23   13   38 1
    24   14   19 1
    25   14   15 1
    26   15   16 1
    27   15   39 1
    28   15   40 1
    29   16   17 1
    30   16   41 1
    31   16   42 1
    32   17   18 1
    33   17   20 1
    34   17   59 1
    35   18   19 1
    36   18   43 1
    37   18   44 1
    38   19   45 1
    39   19   46 1
    40   20   21 1
    41   20   47 1
    42   20   48 1
    43   21   22 1
    44   21   49 1
    45   21   50 1
    46   22   51 1
    47   23   24 2
    48   23   25 am
    49   25   26 1
    50   25   52 1
    51   26   31 ar
    52   26   27 ar
    53   27   28 ar
    54   27   33 1
    55   28   29 ar
    56   28   53 1
    57   29   30 ar
    58   29   54 1
    59   30   31 ar
    60   30   55 1
    61   31   32 1
    62   33   56 1
    63   33   57 1
    64   33   58 1
@<TRIPOS>MOLECULE
~{N}-(2-chloro-6-methyl-phenyl)-2-[[6-[4-(2-hydroxyethyl)piperazin-1-yl]-2-methyl-pyrimidin-3-ium-4-yl]amino]thiazole-5-carboxamide
   60    63     0     0     0
SMALL
USER_CHARGES

@<TRIPOS>ATOM
      1 C1          2.8905    1.0688    8.3231 C.2       1 <0>         0.3868
      2 C2          3.9713    1.9243    8.3671 C.2       1 <0>        -0.2743
      3 S1          4.5685    2.1789    6.7797 S.3       1 <0>         0.1476
      4 C3          3.3441    1.1375    6.1785 C.2       1 <0>         0.5162
      5 N1          2.5291    0.6169    7.0689 N.2       1 <0>        -0.6991
      6 N2          3.2675    0.8919    4.7930 N.pl3     1 <0>        -0.7010
      7 C4          2.3952    0.1019    4.0049 C.ar      1 <0>         0.3320
      8 C5          2.6085    0.0868    2.6416 C.ar      1 <0>        -0.4050
      9 C6          1.7377   -0.6944    1.9097 C.ar      1 <0>         0.7757
     10 N3          0.7329   -1.4101    2.4558 N.ar      1 <0>        -0.7365
     11 C7          0.6285   -1.3130    3.7949 C.ar      1 <0>         0.6286
     12 N4          1.4110   -0.5885    4.6174 N.ar      1 <0>        -0.3349
     13 C8         -0.4709   -2.0903    4.4354 C.3       1 <0>        -0.1740
     14 N5          1.9200   -0.7367    0.5229 N.pl3     1 <0>        -0.7262
     15 C9          1.5400   -1.9653   -0.1857 C.3       1 <0>         0.1962
     16 C10         2.2590   -2.0516   -1.5339 C.3       1 <0>         0.1648
     17 N6          2.0340   -0.8383   -2.3295 N.3       1 <0>        -0.7443
     18 C11         2.5419    0.3340   -1.6066 C.3       1 <0>         0.1648
     19 C12         1.8332    0.4998   -0.2600 C.3       1 <0>         0.1962
     20 C13         2.6799   -0.9549   -3.6364 C.3       1 <0>         0.1658
     21 C14         1.8193   -1.7892   -4.5775 C.3       1 <0>         0.1323
     22 O1          2.4674   -1.8879   -5.8393 O.3       1 <0>        -0.5995
     23 C15         4.5926    2.5621    9.4786 C.2       1 <0>         0.7133
     24 O2          5.5825    3.3245    9.3610 O.2       1 <0>        -0.5667
     25 N7          4.0056    2.3222   10.7453 N.am      1 <0>        -0.4677
     26 C16         4.3654    2.8325   12.0181 C.ar      1 <0>         0.0295
     27 C17         3.4388    3.5826   12.7423 C.ar      1 <0>        -0.0623
     28 C18         3.7798    4.0907   13.9958 C.ar      1 <0>        -0.1247
     29 C19         5.0475    3.8487   14.5250 C.ar      1 <0>        -0.1032
     30 C20         5.9741    3.0986   13.8008 C.ar      1 <0>        -0.1195
     31 C21         5.6330    2.5905   12.5473 C.ar      1 <0>         0.0327
     32 Cl1         6.8138    1.6671   11.6873 Cl        1 <0>        -0.0803
     33 C22         2.0725    3.8600   12.2035 C.3       1 <0>        -0.0540
     34 H1          2.3231    0.7380    9.1833 H         1 <0>         0.0618
     35 H2          3.9878    1.3656    4.1098 H         1 <0>         0.4768
     36 H3          3.4079    0.6519    2.1761 H         1 <0>         0.1859
     37 H4         -0.4493   -1.9279    5.5231 H         1 <0>         0.0973
     38 H5         -0.3357   -3.1608    4.2217 H         1 <0>         0.0973
     39 H6         -1.4387   -1.7556    4.0338 H         1 <0>         0.0973
     40 H7          1.8156   -2.8395    0.4225 H         1 <0>         0.0706
     41 H8          0.4538   -1.9673   -0.3596 H         1 <0>         0.0706
     42 H9          3.3399   -2.1677   -1.3662 H         1 <0>         0.0573
     43 H10         1.8802   -2.9175   -2.0967 H         1 <0>         0.0573
     44 H11         3.6200    0.2137   -1.4246 H         1 <0>         0.0573
     45 H12         2.3703    1.2386   -2.2085 H         1 <0>         0.0573
     46 H13         0.7764    0.7459   -0.4408 H         1 <0>         0.0706
     47 H14         2.3107    1.3201    0.2960 H         1 <0>         0.0706
     48 H15         2.8172    0.0474   -4.0682 H         1 <0>         0.0580
     49 H16         3.6597   -1.4410   -3.5191 H         1 <0>         0.0580
     50 H17         1.6813   -2.7948   -4.1536 H         1 <0>         0.0309
     51 H18         0.8389   -1.3064   -4.7027 H         1 <0>         0.0309
     52 H19         1.9974   -2.4553   -6.6561 H         1 <0>         0.4135
     53 H20         3.1382    1.6512   10.8313 H         1 <0>         0.3221
     54 H21         3.0654    4.6767   14.5680 H         1 <0>         0.1455
     55 H22         5.3130    4.2442   15.5010 H         1 <0>         0.1495
     56 H23         6.9577    2.9195   14.2277 H         1 <0>         0.1582
     57 H24         1.5078    4.4638   12.9292 H         1 <0>         0.0484
     58 H25         1.5470    2.9094   12.0296 H         1 <0>         0.0484
     59 H26         2.1572    4.4109   11.2552 H         1 <0>         0.0484
     60 H27         1.2970   -0.5315    5.7100 H         1 <0>         0.3506
@<TRIPOS>BOND
     1    1    5 1
     2    1    2 2
     3    1   34 1
     4    2    3 1
     5    2   23 1
     6    3    4 1
     7    4    5 2
     8    4    6 1
     9    6    7 1
    10    6   35 1
    11    7   12 ar
    12    7    8 ar
    13    8    9 ar
    14    8   36 1
    15    9   10 ar
    16    9   14 1
    17   10   11 ar
    18   11   12 ar
    19   11   13 1
    20   12   60 1
    21   13   37 1
    22   13   38 1
    23   13   39 1
    24   14   19 1
    25   14   15 1
    26   15   16 1
    27   15   40 1
    28   15   41 1
    29   16   17 1
    30   16   42 1
    31   16   43 1
    32   17   18 1
    33   17   20 1
    34   18   19 1
    35   18   44 1
    36   18   45 1
    37   19   46 1
    38   19   47 1
    39   20   21 1
    40   20   48 1
    41   20   49 1
    42   21   22 1
    43   21   50 1
    44   21   51 1
    45   22   52 1
    46   23   24 2
    47   23   25 am
    48   25   26 1
    49   25   53 1
    50   26   31 ar
    51   26   27 ar
    52   27   28 ar
    53   27   33 1
    54   28   29 ar
    55   28   54 1
    56   29   30 ar
    57   29   55 1
    58   30   31 ar
    59   30   56 1
    60   31   32 1
    61   33   57 1
    62   33   58 1
    63   33   59 1
@<TRIPOS>MOLECULE
~{N}-(2-chloro-6-methyl-phenyl)-2-[[6-[4-(2-hydroxyethyl)piperazin-4-ium-1-yl]-2-methyl-pyrimidin-3-ium-4-yl]amino]thiazole-5-carboxamide
   61    64     0     0     0
SMALL
USER_CHARGES

@<TRIPOS>ATOM
      1 C1          2.8905    1.0688    8.3231 C.2       1 <0>         0.4148
      2 C2          3.9713    1.9243    8.3671 C.2       1 <0>        -0.2461
      3 S1          4.5685    2.1789    6.7797 S.3       1 <0>         0.1267
      4 C3          3.3441    1.1375    6.1785 C.2       1 <0>         0.4565
      5 N1          2.5291    0.6169    7.0689 N.2       1 <0>        -0.6731
      6 N2          3.2675    0.8919    4.7930 N.pl3     1 <0>        -0.6593
      7 C4          2.3952    0.1019    4.0049 C.ar      1 <0>         0.3377
      8 C5          2.6085    0.0868    2.6416 C.ar      1 <0>        -0.3277
      9 C6          1.7377   -0.6944    1.9097 C.ar      1 <0>         0.7148
     10 N3          0.7329   -1.4101    2.4558 N.ar      1 <0>        -0.7279
     11 C7          0.6285   -1.3130    3.7949 C.ar      1 <0>         0.6354
     12 N4          1.4110   -0.5885    4.6174 N.ar      1 <0>        -0.3241
     13 C8         -0.4709   -2.0903    4.4354 C.3       1 <0>        -0.1830
     14 N5          1.9200   -0.7367    0.5229 N.pl3     1 <0>        -0.7662
     15 C9          1.5400   -1.9653   -0.1857 C.3       1 <0>         0.1574
     16 C10         2.2590   -2.0516   -1.5339 C.3       1 <0>         0.1060
     17 N6          2.0340   -0.8383   -2.3295 N.4       1 <0>        -0.6852
     18 C11         2.5419    0.3340   -1.6066 C.3       1 <0>         0.1060
     19 C12         1.8332    0.4998   -0.2600 C.3       1 <0>         0.1574
     20 C13         2.6799   -0.9549   -3.6364 C.3       1 <0>         0.0928
     21 C14         1.8193   -1.7892   -4.5775 C.3       1 <0>         0.1209
     22 O1          2.4674   -1.8879   -5.8393 O.3       1 <0>        -0.5750
     23 C15         4.5926    2.5621    9.4786 C.2       1 <0>         0.6908
     24 O2          5.5825    3.3245    9.3610 O.2       1 <0>        -0.4891
     25 N7          4.0056    2.3222   10.7453 N.am      1 <0>        -0.4610
     26 C16         4.3654    2.8325   12.0181 C.ar      1 <0>         0.0099
     27 C17         3.4388    3.5826   12.7423 C.ar      1 <0>        -0.0872
     28 C18         3.7798    4.0907   13.9958 C.ar      1 <0>        -0.1117
     29 C19         5.0475    3.8487   14.5250 C.ar      1 <0>        -0.1010
     30 C20         5.9741    3.0986   13.8008 C.ar      1 <0>        -0.1096
     31 C21         5.6330    2.5905   12.5473 C.ar      1 <0>         0.0388
     32 Cl1         6.8138    1.6671   11.6873 Cl        1 <0>        -0.0744
     33 C22         2.0725    3.8600   12.2035 C.3       1 <0>        -0.0599
     34 H1          2.3231    0.7380    9.1833 H         1 <0>         0.0941
     35 H2          3.9878    1.3656    4.1098 H         1 <0>         0.4958
     36 H3          3.4079    0.6519    2.1761 H         1 <0>         0.1977
     37 H4         -0.4493   -1.9279    5.5231 H         1 <0>         0.1092
     38 H5         -0.3357   -3.1608    4.2217 H         1 <0>         0.1092
     39 H6         -1.4387   -1.7556    4.0338 H         1 <0>         0.1092
     40 H7          1.8156   -2.8395    0.4225 H         1 <0>         0.0926
     41 H8          0.4538   -1.9673   -0.3596 H         1 <0>         0.0926
     42 H9          3.3399   -2.1677   -1.3662 H         1 <0>         0.1214
     43 H10         1.8802   -2.9175   -2.0967 H         1 <0>         0.1214
     44 H11         3.6200    0.2137   -1.4246 H         1 <0>         0.1214
     45 H12         2.3703    1.2386   -2.2085 H         1 <0>         0.1214
     46 H13         0.7764    0.7459   -0.4408 H         1 <0>         0.0926
     47 H14         2.3107    1.3201    0.2960 H         1 <0>         0.0926
     48 H15         2.8172    0.0474   -4.0682 H         1 <0>         0.1261
     49 H16         3.6597   -1.4410   -3.5191 H         1 <0>         0.1261
     50 H17         1.6813   -2.7948   -4.1536 H         1 <0>         0.0467
     51 H18         0.8389   -1.3064   -4.7027 H         1 <0>         0.0467
     52 H19         1.9974   -2.4553   -6.6561 H         1 <0>         0.4507
     53 H20         3.1382    1.6512   10.8313 H         1 <0>         0.2991
     54 H21         3.0654    4.6767   14.5680 H         1 <0>         0.1490
     55 H22         5.3130    4.2442   15.5010 H         1 <0>         0.1565
     56 H23         6.9577    2.9195   14.2277 H         1 <0>         0.1653
     57 H24         1.5078    4.4638   12.9292 H         1 <0>         0.0470
     58 H25         1.5470    2.9094   12.0296 H         1 <0>         0.0470
     59 H26         2.1572    4.4109   11.2552 H         1 <0>         0.0470
     60 H27         1.2970   -0.5315    5.7100 H         1 <0>         0.3702
     61 H28         0.9536   -0.7148   -2.4953 H         1 <0>         0.4467
@<TRIPOS>BOND
     1    1    5 1
     2    1    2 2
     3    1   34 1
     4    2    3 1
     5    2   23 1
     6    3    4 1
     7    4    5 2
     8    4    6 1
     9    6    7 1
    10    6   35 1
    11    7   12 ar
    12    7    8 ar
    13    8    9 ar
    14    8   36 1
    15    9   10 ar
    16    9   14 1
    17   10   11 ar
    18   11   12 ar
    19   11   13 1
    20   12   60 1
    21   13   37 1
    22   13   38 1
    23   13   39 1
    24   14   19 1
    25   14   15 1
    26   15   16 1
    27   15   40 1
    28   15   41 1
    29   16   17 1
    30   16   42 1
    31   16   43 1
    32   17   18 1
    33   17   20 1
    34   17   61 1
    35   18   19 1
    36   18   44 1
    37   18   45 1
    38   19   46 1
    39   19   47 1
    40   20   21 1
    41   20   48 1
    42   20   49 1
    43   21   22 1
    44   21   50 1
    45   21   51 1
    46   22   52 1
    47   23   24 2
    48   23   25 am
    49   25   26 1
    50   25   53 1
    51   26   31 ar
    52   26   27 ar
    53   27   28 ar
    54   27   33 1
    55   28   29 ar
    56   28   54 1
    57   29   30 ar
    58   29   55 1
    59   30   31 ar
    60   30   56 1
    61   31   32 1
    62   33   57 1
    63   33   58 1
    64   33   59 1
@<TRIPOS>MOLECULE
(5~{Z})-~{N}-(2-chloro-6-methyl-phenyl)-2-[[6-[4-(2-hydroxyethyl)piperazin-1-yl]-2-methyl-pyrimidin-3-ium-4-yl]amino]thiazole-5-carboximidate
   59    62     0     0     0
SMALL
USER_CHARGES

@<TRIPOS>ATOM
      1 C1          2.8905    1.0688    8.3231 C.2       1 <0>         0.3355
      2 C2          3.9713    1.9243    8.3671 C.2       1 <0>        -0.1407
      3 S1          4.5685    2.1789    6.7797 S.3       1 <0>         0.0318
      4 C3          3.3441    1.1375    6.1785 C.2       1 <0>         0.4263
      5 N1          2.5291    0.6169    7.0689 N.2       1 <0>        -0.6971
      6 N2          3.2675    0.8919    4.7930 N.pl3     1 <0>        -0.6507
      7 C4          2.3952    0.1019    4.0049 C.ar      1 <0>         0.3335
      8 C5          2.6085    0.0868    2.6416 C.ar      1 <0>        -0.4143
      9 C6          1.7377   -0.6944    1.9097 C.ar      1 <0>         0.7575
     10 N3          0.7329   -1.4101    2.4558 N.ar      1 <0>        -0.7487
     11 C7          0.6285   -1.3130    3.7949 C.ar      1 <0>         0.6178
     12 N4          1.4110   -0.5885    4.6174 N.ar      1 <0>        -0.3472
     13 C8         -0.4709   -2.0903    4.4354 C.3       1 <0>        -0.1717
     14 N5          1.9200   -0.7367    0.5229 N.pl3     1 <0>        -0.7546
     15 C9          1.5400   -1.9653   -0.1857 C.3       1 <0>         0.2018
     16 C10         2.2590   -2.0516   -1.5339 C.3       1 <0>         0.1645
     17 N6          2.0340   -0.8383   -2.3295 N.3       1 <0>        -0.7428
     18 C11         2.5419    0.3340   -1.6066 C.3       1 <0>         0.1645
     19 C12         1.8332    0.4998   -0.2600 C.3       1 <0>         0.2018
     20 C13         2.6799   -0.9549   -3.6364 C.3       1 <0>         0.1680
     21 C14         1.8193   -1.7892   -4.5775 C.3       1 <0>         0.1305
     22 O1          2.4674   -1.8879   -5.8393 O.3       1 <0>        -0.6019
     23 C15         4.5926    2.5621    9.4786 C.2       1 <0>         0.9588
     24 O2          5.5825    3.3245    9.3610 O.3       1 <0>        -0.8050
     25 N7          4.0056    2.3222   10.7453 N.2       1 <0>        -0.8416
     26 C16         4.3654    2.8325   12.0181 C.ar      1 <0>         0.2677
     27 C17         3.4388    3.5826   12.7423 C.ar      1 <0>        -0.1107
     28 C18         3.7798    4.0907   13.9958 C.ar      1 <0>        -0.1206
     29 C19         5.0475    3.8487   14.5250 C.ar      1 <0>        -0.1717
     30 C20         5.9741    3.0986   13.8008 C.ar      1 <0>        -0.1197
     31 C21         5.6330    2.5905   12.5473 C.ar      1 <0>        -0.0096
     32 Cl1         6.8138    1.6671   11.6873 Cl        1 <0>        -0.1327
     33 C22         2.0725    3.8600   12.2035 C.3       1 <0>        -0.0350
     34 H1          2.3231    0.7380    9.1833 H         1 <0>         0.0718
     35 H2          3.9878    1.3656    4.1098 H         1 <0>         0.4817
     36 H3          3.4079    0.6519    2.1761 H         1 <0>         0.1785
     37 H4         -0.4493   -1.9279    5.5231 H         1 <0>         0.0905
     38 H5         -0.3357   -3.1608    4.2217 H         1 <0>         0.0905
     39 H6         -1.4387   -1.7556    4.0338 H         1 <0>         0.0905
     40 H7          1.8156   -2.8395    0.4225 H         1 <0>         0.0620
     41 H8          0.4538   -1.9673   -0.3596 H         1 <0>         0.0620
     42 H9          3.3399   -2.1677   -1.3662 H         1 <0>         0.0507
     43 H10         1.8802   -2.9175   -2.0967 H         1 <0>         0.0507
     44 H11         3.6200    0.2137   -1.4246 H         1 <0>         0.0507
     45 H12         2.3703    1.2386   -2.2085 H         1 <0>         0.0507
     46 H13         0.7764    0.7459   -0.4408 H         1 <0>         0.0620
     47 H14         2.3107    1.3201    0.2960 H         1 <0>         0.0620
     48 H15         2.8172    0.0474   -4.0682 H         1 <0>         0.0541
     49 H16         3.6597   -1.4410   -3.5191 H         1 <0>         0.0541
     50 H17         1.6813   -2.7948   -4.1536 H         1 <0>         0.0297
     51 H18         0.8389   -1.3064   -4.7027 H         1 <0>         0.0297
     52 H19         1.9974   -2.4553   -6.6561 H         1 <0>         0.4074
     53 H20         3.0654    4.6767   14.5680 H         1 <0>         0.1136
     54 H21         5.3130    4.2442   15.5010 H         1 <0>         0.1168
     55 H22         6.9577    2.9195   14.2277 H         1 <0>         0.1274
     56 H23         1.5078    4.4638   12.9292 H         1 <0>         0.0336
     57 H24         1.5470    2.9094   12.0296 H         1 <0>         0.0336
     58 H25         2.1572    4.4109   11.2552 H         1 <0>         0.0336
     59 H26         1.2970   -0.5315    5.7100 H         1 <0>         0.3683
@<TRIPOS>BOND
     1    1    5 1
     2    1    2 2
     3    1   34 1
     4    2    3 1
     5    2   23 1
     6    3    4 1
     7    4    5 2
     8    4    6 1
     9    6    7 1
    10    6   35 1
    11    7   12 ar
    12    7    8 ar
    13    8    9 ar
    14    8   36 1
    15    9   10 ar
    16    9   14 1
    17   10   11 ar
    18   11   12 ar
    19   11   13 1
    20   12   59 1
    21   13   37 1
    22   13   38 1
    23   13   39 1
    24   14   19 1
    25   14   15 1
    26   15   16 1
    27   15   40 1
    28   15   41 1
    29   16   17 1
    30   16   42 1
    31   16   43 1
    32   17   18 1
    33   17   20 1
    34   18   19 1
    35   18   44 1
    36   18   45 1
    37   19   46 1
    38   19   47 1
    39   20   21 1
    40   20   48 1
    41   20   49 1
    42   21   22 1
    43   21   50 1
    44   21   51 1
    45   22   52 1
    46   23   24 1
    47   23   25 2
    48   25   26 1
    49   26   31 ar
    50   26   27 ar
    51   27   28 ar
    52   27   33 1
    53   28   29 ar
    54   28   53 1
    55   29   30 ar
    56   29   54 1
    57   30   31 ar
    58   30   55 1
    59   31   32 1
    60   33   56 1
    61   33   57 1
    62   33   58 1
@<TRIPOS>MOLECULE
(5~{Z})-~{N}-(2-chloro-6-methyl-phenyl)-2-[[6-[4-(2-hydroxyethyl)piperazin-1-yl]-2-methyl-pyrimidin-4-yl]amino]thiazole-5-carboximidate
   58    61     0     0     0
SMALL
USER_CHARGES

@<TRIPOS>ATOM
      1 C1          2.8905    1.0688    8.3231 C.2       1 <0>         0.3236
      2 C2          3.9713    1.9243    8.3671 C.2       1 <0>        -0.1604
      3 S1          4.5685    2.1789    6.7797 S.3       1 <0>        -0.1728
      4 C3          3.3441    1.1375    6.1785 C.2       1 <0>         0.5826
      5 N1          2.5291    0.6169    7.0689 N.2       1 <0>        -0.6316
      6 N2          3.2675    0.8919    4.7930 N.pl3     1 <0>        -0.8216
      7 C4          2.3952    0.1019    4.0049 C.ar      1 <0>         0.7176
      8 C5          2.6085    0.0868    2.6416 C.ar      1 <0>        -0.4654
      9 C6          1.7377   -0.6944    1.9097 C.ar      1 <0>         0.6757
     10 N3          0.7329   -1.4101    2.4558 N.ar      1 <0>        -0.7900
     11 C7          0.6285   -1.3130    3.7949 C.ar      1 <0>         0.6898
     12 N4          1.4110   -0.5885    4.6174 N.ar      1 <0>        -0.7075
     13 C8         -0.4709   -2.0903    4.4354 C.3       1 <0>        -0.1327
     14 N5          1.9200   -0.7367    0.5229 N.pl3     1 <0>        -0.7658
     15 C9          1.5400   -1.9653   -0.1857 C.3       1 <0>         0.2004
     16 C10         2.2590   -2.0516   -1.5339 C.3       1 <0>         0.1677
     17 N6          2.0340   -0.8383   -2.3295 N.3       1 <0>        -0.7433
     18 C11         2.5419    0.3340   -1.6066 C.3       1 <0>         0.1677
     19 C12         1.8332    0.4998   -0.2600 C.3       1 <0>         0.2004
     20 C13         2.6799   -0.9549   -3.6364 C.3       1 <0>         0.1718
     21 C14         1.8193   -1.7892   -4.5775 C.3       1 <0>         0.1278
     22 O1          2.4674   -1.8879   -5.8393 O.3       1 <0>        -0.6070
     23 C15         4.5926    2.5621    9.4786 C.2       1 <0>         0.9810
     24 O2          5.5825    3.3245    9.3610 O.3       1 <0>        -0.8184
     25 N7          4.0056    2.3222   10.7453 N.2       1 <0>        -0.8695
     26 C16         4.3654    2.8325   12.0181 C.ar      1 <0>         0.3050
     27 C17         3.4388    3.5826   12.7423 C.ar      1 <0>        -0.1251
     28 C18         3.7798    4.0907   13.9958 C.ar      1 <0>        -0.1222
     29 C19         5.0475    3.8487   14.5250 C.ar      1 <0>        -0.1945
     30 C20         5.9741    3.0986   13.8008 C.ar      1 <0>        -0.1212
     31 C21         5.6330    2.5905   12.5473 C.ar      1 <0>        -0.0260
     32 Cl1         6.8138    1.6671   11.6873 Cl        1 <0>        -0.1350
     33 C22         2.0725    3.8600   12.2035 C.3       1 <0>        -0.0329
     34 H1          2.3231    0.7380    9.1833 H         1 <0>         0.0504
     35 H2          3.9878    1.3656    4.1098 H         1 <0>         0.4471
     36 H3          3.4079    0.6519    2.1761 H         1 <0>         0.1472
     37 H4         -0.4493   -1.9279    5.5231 H         1 <0>         0.0587
     38 H5         -0.3357   -3.1608    4.2217 H         1 <0>         0.0587
     39 H6         -1.4387   -1.7556    4.0338 H         1 <0>         0.0587
     40 H7          1.8156   -2.8395    0.4225 H         1 <0>         0.0502
     41 H8          0.4538   -1.9673   -0.3596 H         1 <0>         0.0502
     42 H9          3.3399   -2.1677   -1.3662 H         1 <0>         0.0364
     43 H10         1.8802   -2.9175   -2.0967 H         1 <0>         0.0364
     44 H11         3.6200    0.2137   -1.4246 H         1 <0>         0.0364
     45 H12         2.3703    1.2386   -2.2085 H         1 <0>         0.0364
     46 H13         0.7764    0.7459   -0.4408 H         1 <0>         0.0502
     47 H14         2.3107    1.3201    0.2960 H         1 <0>         0.0502
     48 H15         2.8172    0.0474   -4.0682 H         1 <0>         0.0450
     49 H16         3.6597   -1.4410   -3.5191 H         1 <0>         0.0450
     50 H17         1.6813   -2.7948   -4.1536 H         1 <0>         0.0284
     51 H18         0.8389   -1.3064   -4.7027 H         1 <0>         0.0284
     52 H19         1.9974   -2.4553   -6.6561 H         1 <0>         0.3988
     53 H20         3.0654    4.6767   14.5680 H         1 <0>         0.1032
     54 H21         5.3130    4.2442   15.5010 H         1 <0>         0.1039
     55 H22         6.9577    2.9195   14.2277 H         1 <0>         0.1151
     56 H23         1.5078    4.4638   12.9292 H         1 <0>         0.0323
     57 H24         1.5470    2.9094   12.0296 H         1 <0>         0.0323
     58 H25         2.1572    4.4109   11.2552 H         1 <0>         0.0323
@<TRIPOS>BOND
     1    1    5 1
     2    1    2 2
     3    1   34 1
     4    2    3 1
     5    2   23 1
     6    3    4 1
     7    4    5 2
     8    4    6 1
     9    6    7 1
    10    6   35 1
    11    7   12 ar
    12    7    8 ar
    13    8    9 ar
    14    8   36 1
    15    9   10 ar
    16    9   14 1
    17   10   11 ar
    18   11   12 ar
    19   11   13 1
    20   13   37 1
    21   13   38 1
    22   13   39 1
    23   14   19 1
    24   14   15 1
    25   15   16 1
    26   15   40 1
    27   15   41 1
    28   16   17 1
    29   16   42 1
    30   16   43 1
    31   17   18 1
    32   17   20 1
    33   18   19 1
    34   18   44 1
    35   18   45 1
    36   19   46 1
    37   19   47 1
    38   20   21 1
    39   20   48 1
    40   20   49 1
    41   21   22 1
    42   21   50 1
    43   21   51 1
    44   22   52 1
    45   23   24 1
    46   23   25 2
    47   25   26 1
    48   26   31 ar
    49   26   27 ar
    50   27   28 ar
    51   27   33 1
    52   28   29 ar
    53   28   53 1
    54   29   30 ar
    55   29   54 1
    56   30   31 ar
    57   30   55 1
    58   31   32 1
    59   33   56 1
    60   33   57 1
    61   33   58 1
@<TRIPOS>MOLECULE
(5~{Z})-~{N}-(2-chloro-6-methyl-phenyl)-2-[[6-[4-(2-hydroxyethyl)piperazin-4-ium-1-yl]-2-methyl-pyrimidin-4-yl]amino]thiazole-5-carboximidate
   59    62     0     0     0
SMALL
USER_CHARGES

@<TRIPOS>ATOM
      1 C1          2.8905    1.0688    8.3231 C.2       1 <0>         0.3138
      2 C2          3.9713    1.9243    8.3671 C.2       1 <0>        -0.1399
      3 S1          4.5685    2.1789    6.7797 S.3       1 <0>        -0.1284
      4 C3          3.3441    1.1375    6.1785 C.2       1 <0>         0.5188
      5 N1          2.5291    0.6169    7.0689 N.2       1 <0>        -0.6136
      6 N2          3.2675    0.8919    4.7930 N.pl3     1 <0>        -0.7833
      7 C4          2.3952    0.1019    4.0049 C.ar      1 <0>         0.7239
      8 C5          2.6085    0.0868    2.6416 C.ar      1 <0>        -0.4618
      9 C6          1.7377   -0.6944    1.9097 C.ar      1 <0>         0.6418
     10 N3          0.7329   -1.4101    2.4558 N.ar      1 <0>        -0.7998
     11 C7          0.6285   -1.3130    3.7949 C.ar      1 <0>         0.7066
     12 N4          1.4110   -0.5885    4.6174 N.ar      1 <0>        -0.6830
     13 C8         -0.4709   -2.0903    4.4354 C.3       1 <0>        -0.1383
     14 N5          1.9200   -0.7367    0.5229 N.pl3     1 <0>        -0.7593
     15 C9          1.5400   -1.9653   -0.1857 C.3       1 <0>         0.1692
     16 C10         2.2590   -2.0516   -1.5339 C.3       1 <0>         0.1035
     17 N6          2.0340   -0.8383   -2.3295 N.4       1 <0>        -0.6830
     18 C11         2.5419    0.3340   -1.6066 C.3       1 <0>         0.1035
     19 C12         1.8332    0.4998   -0.2600 C.3       1 <0>         0.1692
     20 C13         2.6799   -0.9549   -3.6364 C.3       1 <0>         0.0919
     21 C14         1.8193   -1.7892   -4.5775 C.3       1 <0>         0.1176
     22 O1          2.4674   -1.8879   -5.8393 O.3       1 <0>        -0.5814
     23 C15         4.5926    2.5621    9.4786 C.2       1 <0>         0.9702
     24 O2          5.5825    3.3245    9.3610 O.3       1 <0>        -0.8153
     25 N7          4.0056    2.3222   10.7453 N.2       1 <0>        -0.8564
     26 C16         4.3654    2.8325   12.0181 C.ar      1 <0>         0.2903
     27 C17         3.4388    3.5826   12.7423 C.ar      1 <0>        -0.1223
     28 C18         3.7798    4.0907   13.9958 C.ar      1 <0>        -0.1214
     29 C19         5.0475    3.8487   14.5250 C.ar      1 <0>        -0.1841
     30 C20         5.9741    3.0986   13.8008 C.ar      1 <0>        -0.1203
     31 C21         5.6330    2.5905   12.5473 C.ar      1 <0>        -0.0187
     32 Cl1         6.8138    1.6671   11.6873 Cl        1 <0>        -0.1334
     33 C22         2.0725    3.8600   12.2035 C.3       1 <0>        -0.0259
     34 H1          2.3231    0.7380    9.1833 H         1 <0>         0.0587
     35 H2          3.9878    1.3656    4.1098 H         1 <0>         0.4417
     36 H3          3.4079    0.6519    2.1761 H         1 <0>         0.1449
     37 H4         -0.4493   -1.9279    5.5231 H         1 <0>         0.0684
     38 H5         -0.3357   -3.1608    4.2217 H         1 <0>         0.0684
     39 H6         -1.4387   -1.7556    4.0338 H         1 <0>         0.0684
     40 H7          1.8156   -2.8395    0.4225 H         1 <0>         0.0860
     41 H8          0.4538   -1.9673   -0.3596 H         1 <0>         0.0860
     42 H9          3.3399   -2.1677   -1.3662 H         1 <0>         0.1062
     43 H10         1.8802   -2.9175   -2.0967 H         1 <0>         0.1062
     44 H11         3.6200    0.2137   -1.4246 H         1 <0>         0.1062
     45 H12         2.3703    1.2386   -2.2085 H         1 <0>         0.1062
     46 H13         0.7764    0.7459   -0.4408 H         1 <0>         0.0860
     47 H14         2.3107    1.3201    0.2960 H         1 <0>         0.0860
     48 H15         2.8172    0.0474   -4.0682 H         1 <0>         0.1175
     49 H16         3.6597   -1.4410   -3.5191 H         1 <0>         0.1175
     50 H17         1.6813   -2.7948   -4.1536 H         1 <0>         0.0455
     51 H18         0.8389   -1.3064   -4.7027 H         1 <0>         0.0455
     52 H19         1.9974   -2.4553   -6.6561 H         1 <0>         0.4377
     53 H20         3.0654    4.6767   14.5680 H         1 <0>         0.1067
     54 H21         5.3130    4.2442   15.5010 H         1 <0>         0.1110
     55 H22         6.9577    2.9195   14.2277 H         1 <0>         0.1210
     56 H23         1.5078    4.4638   12.9292 H         1 <0>         0.0296
     57 H24         1.5470    2.9094   12.0296 H         1 <0>         0.0296
     58 H25         2.1572    4.4109   11.2552 H         1 <0>         0.0296
     59 H26         0.9536   -0.7148   -2.4953 H         1 <0>         0.4387
@<TRIPOS>BOND
     1    1    5 1
     2    1    2 2
     3    1   34 1
     4    2    3 1
     5    2   23 1
     6    3    4 1
     7    4    5 2
     8    4    6 1
     9    6    7 1
    10    6   35 1
    11    7   12 ar
    12    7    8 ar
    13    8    9 ar
    14    8   36 1
    15    9   10 ar
    16    9   14 1
    17   10   11 ar
    18   11   12 ar
    19   11   13 1
    20   13   37 1
    21   13   38 1
    22   13   39 1
    23   14   19 1
    24   14   15 1
    25   15   16 1
    26   15   40 1
    27   15   41 1
    28   16   17 1
    29   16   42 1
    30   16   43 1
    31   17   18 1
    32   17   20 1
    33   17   59 1
    34   18   19 1
    35   18   44 1
    36   18   45 1
    37   19   46 1
    38   19   47 1
    39   20   21 1
    40   20   48 1
    41   20   49 1
    42   21   22 1
    43   21   50 1
    44   21   51 1
    45   22   52 1
    46   23   24 1
    47   23   25 2
    48   25   26 1
    49   26   31 ar
    50   26   27 ar
    51   27   28 ar
    52   27   33 1
    53   28   29 ar
    54   28   53 1
    55   29   30 ar
    56   29   54 1
    57   30   31 ar
    58   30   55 1
    59   31   32 1
    60   33   56 1
    61   33   57 1
    62   33   58 1
@<TRIPOS>MOLECULE
(5~{Z})-~{N}-(2-chloro-6-methyl-phenyl)-2-[[6-[4-(2-hydroxyethyl)piperazin-4-ium-1-yl]-2-methyl-pyrimidin-3-ium-4-yl]amino]thiazole-5-carboximidate
   60    63     0     0     0
SMALL
USER_CHARGES

@<TRIPOS>ATOM
      1 C1          2.8905    1.0688    8.3231 C.2       1 <0>         0.3472
      2 C2          3.9713    1.9243    8.3671 C.2       1 <0>        -0.1515
      3 S1          4.5685    2.1789    6.7797 S.3       1 <0>         0.1547
      4 C3          3.3441    1.1375    6.1785 C.2       1 <0>         0.3190
      5 N1          2.5291    0.6169    7.0689 N.2       1 <0>        -0.6733
      6 N2          3.2675    0.8919    4.7930 N.pl3     1 <0>        -0.5713
      7 C4          2.3952    0.1019    4.0049 C.ar      1 <0>         0.2844
      8 C5          2.6085    0.0868    2.6416 C.ar      1 <0>        -0.3098
      9 C6          1.7377   -0.6944    1.9097 C.ar      1 <0>         0.6721
     10 N3          0.7329   -1.4101    2.4558 N.ar      1 <0>        -0.7584
     11 C7          0.6285   -1.3130    3.7949 C.ar      1 <0>         0.6295
     12 N4          1.4110   -0.5885    4.6174 N.ar      1 <0>        -0.3359
     13 C8         -0.4709   -2.0903    4.4354 C.3       1 <0>        -0.1761
     14 N5          1.9200   -0.7367    0.5229 N.pl3     1 <0>        -0.7556
     15 C9          1.5400   -1.9653   -0.1857 C.3       1 <0>         0.1574
     16 C10         2.2590   -2.0516   -1.5339 C.3       1 <0>         0.1067
     17 N6          2.0340   -0.8383   -2.3295 N.4       1 <0>        -0.6831
     18 C11         2.5419    0.3340   -1.6066 C.3       1 <0>         0.1067
     19 C12         1.8332    0.4998   -0.2600 C.3       1 <0>         0.1574
     20 C13         2.6799   -0.9549   -3.6364 C.3       1 <0>         0.0884
     21 C14         1.8193   -1.7892   -4.5775 C.3       1 <0>         0.1214
     22 O1          2.4674   -1.8879   -5.8393 O.3       1 <0>        -0.5788
     23 C15         4.5926    2.5621    9.4786 C.2       1 <0>         0.9474
     24 O2          5.5825    3.3245    9.3610 O.3       1 <0>        -0.7988
     25 N7          4.0056    2.3222   10.7453 N.2       1 <0>        -0.8239
     26 C16         4.3654    2.8325   12.0181 C.ar      1 <0>         0.2532
     27 C17         3.4388    3.5826   12.7423 C.ar      1 <0>        -0.1028
     28 C18         3.7798    4.0907   13.9958 C.ar      1 <0>        -0.1180
     29 C19         5.0475    3.8487   14.5250 C.ar      1 <0>        -0.1599
     30 C20         5.9741    3.0986   13.8008 C.ar      1 <0>        -0.1196
     31 C21         5.6330    2.5905   12.5473 C.ar      1 <0>        -0.0064
     32 Cl1         6.8138    1.6671   11.6873 Cl        1 <0>        -0.1393
     33 C22         2.0725    3.8600   12.2035 C.3       1 <0>        -0.0365
     34 H1          2.3231    0.7380    9.1833 H         1 <0>         0.0781
     35 H2          3.9878    1.3656    4.1098 H         1 <0>         0.4840
     36 H3          3.4079    0.6519    2.1761 H         1 <0>         0.1848
     37 H4         -0.4493   -1.9279    5.5231 H         1 <0>         0.0983
     38 H5         -0.3357   -3.1608    4.2217 H         1 <0>         0.0983
     39 H6         -1.4387   -1.7556    4.0338 H         1 <0>         0.0983
     40 H7          1.8156   -2.8395    0.4225 H         1 <0>         0.0902
     41 H8          0.4538   -1.9673   -0.3596 H         1 <0>         0.0902
     42 H9          3.3399   -2.1677   -1.3662 H         1 <0>         0.1157
     43 H10         1.8802   -2.9175   -2.0967 H         1 <0>         0.1157
     44 H11         3.6200    0.2137   -1.4246 H         1 <0>         0.1157
     45 H12         2.3703    1.2386   -2.2085 H         1 <0>         0.1157
     46 H13         0.7764    0.7459   -0.4408 H         1 <0>         0.0902
     47 H14         2.3107    1.3201    0.2960 H         1 <0>         0.0902
     48 H15         2.8172    0.0474   -4.0682 H         1 <0>         0.1232
     49 H16         3.6597   -1.4410   -3.5191 H         1 <0>         0.1232
     50 H17         1.6813   -2.7948   -4.1536 H         1 <0>         0.0466
     51 H18         0.8389   -1.3064   -4.7027 H         1 <0>         0.0466
     52 H19         1.9974   -2.4553   -6.6561 H         1 <0>         0.4461
     53 H20         3.0654    4.6767   14.5680 H         1 <0>         0.1212
     54 H21         5.3130    4.2442   15.5010 H         1 <0>         0.1244
     55 H22         6.9577    2.9195   14.2277 H         1 <0>         0.1315
     56 H23         1.5078    4.4638   12.9292 H         1 <0>         0.0358
     57 H24         1.5470    2.9094   12.0296 H         1 <0>         0.0358
     58 H25         2.1572    4.4109   11.2552 H         1 <0>         0.0358
     59 H26         1.2970   -0.5315    5.7100 H         1 <0>         0.3729
     60 H27         0.9536   -0.7148   -2.4953 H         1 <0>         0.4451
@<TRIPOS>BOND
     1    1    5 1
     2    1    2 2
     3    1   34 1
     4    2    3 1
     5    2   23 1
     6    3    4 1
     7    4    5 2
     8    4    6 1
     9    6    7 1
    10    6   35 1
    11    7   12 ar
    12    7    8 ar
    13    8    9 ar
    14    8   36 1
    15    9   10 ar
    16    9   14 1
    17   10   11 ar
    18   11   12 ar
    19   11   13 1
    20   12   59 1
    21   13   37 1
    22   13   38 1
    23   13   39 1
    24   14   19 1
    25   14   15 1
    26   15   16 1
    27   15   40 1
    28   15   41 1
    29   16   17 1
    30   16   42 1
    31   16   43 1
    32   17   18 1
    33   17   20 1
    34   17   60 1
    35   18   19 1
    36   18   44 1
    37   18   45 1
    38   19   46 1
    39   19   47 1
    40   20   21 1
    41   20   48 1
    42   20   49 1
    43   21   22 1
    44   21   50 1
    45   21   51 1
    46   22   52 1
    47   23   24 1
    48   23   25 2
    49   25   26 1
    50   26   31 ar
    51   26   27 ar
    52   27   28 ar
    53   27   33 1
    54   28   29 ar
    55   28   53 1
    56   29   30 ar
    57   29   54 1
    58   30   31 ar
    59   30   55 1
    60   31   32 1
    61   33   56 1
    62   33   57 1
    63   33   58 1
