~{N}-(2-chloro-6-methyl-phenyl)-2-[[6-[4-(2-hydroxyethyl)piperazin-1-yl]-2-methyl-pyrimidin-4-yl]amino]thiazole-5-carboxamide
                    3D
 Structure written by MMmdl.
 59 62  0  0  1  0            999 V2000
    2.8912    1.0679    8.3232 C   0  0  0  0  0  0
    3.9723    1.9231    8.3673 C   0  0  0  0  0  0
    4.5696    2.1775    6.7799 S   0  0  0  0  0  0
    3.3449    1.1365    6.1786 C   0  0  0  0  0  0
    2.5297    0.6162    7.0690 N   0  0  0  0  0  0
    3.2682    0.8910    4.7931 N   0  0  0  0  0  0
    2.3957    0.1013    4.0050 C   0  0  0  0  0  0
    2.6090    0.0862    2.6417 C   0  0  0  0  0  0
    1.7376   -0.6943    1.9097 C   0  0  0  0  0  0
    0.7328   -1.4099    2.4558 N   0  0  0  0  0  0
    0.6283   -1.3128    3.7949 C   0  0  0  0  0  0
    1.4111   -0.5886    4.6174 N   0  0  0  0  0  0
   -0.4711   -2.0900    4.4354 C   0  0  0  0  0  0
    1.9199   -0.7366    0.5229 N   0  0  0  0  0  0
    1.5399   -1.9651   -0.1857 C   0  0  0  0  0  0
    2.2588   -2.0514   -1.5340 C   0  0  0  0  0  0
    2.0338   -0.8381   -2.3295 N   0  0  0  0  0  0
    2.5418    0.3342   -1.6066 C   0  0  0  0  0  0
    1.8331    0.5000   -0.2600 C   0  0  0  0  0  0
    2.6797   -0.9547   -3.6364 C   0  0  0  0  0  0
    1.8191   -1.7889   -4.5775 C   0  0  0  0  0  0
    2.4671   -1.8876   -5.8394 O   0  0  0  0  0  0
    4.5938    2.5606    9.4788 C   0  0  0  0  0  0
    5.5839    3.3227    9.3612 O   0  0  0  0  0  0
    4.0067    2.3209   10.7455 N   0  0  0  0  0  0
    4.3666    2.8310   12.0183 C   0  0  0  0  0  0
    3.4402    3.5814   12.7425 C   0  0  0  0  0  0
    3.7814    4.0894   13.9960 C   0  0  0  0  0  0
    5.0490    3.8469   14.5252 C   0  0  0  0  0  0
    5.9753    3.0965   13.8010 C   0  0  0  0  0  0
    5.6341    2.5886   12.5475 C   0  0  0  0  0  0
    6.8146    1.6648   11.6875 Cl  0  0  0  0  0  0
    2.0740    3.8593   12.2037 C   0  0  0  0  0  0
    2.3237    0.7373    9.1834 H   0  0  0  0  0  0
    3.3354    0.5938    2.1783 H   0  0  0  0  0  0
   -1.0335   -2.6346    3.6626 H   0  0  0  0  0  0
   -1.1470   -1.4017    4.9640 H   0  0  0  0  0  0
   -0.0441   -2.8070    5.1519 H   0  0  0  0  0  0
    0.4522   -1.9607   -0.3499 H   0  0  0  0  0  0
    1.8139   -2.8330    0.4321 H   0  0  0  0  0  0
    3.3398   -2.1676   -1.3663 H   0  0  0  0  0  0
    1.8800   -2.9173   -2.0968 H   0  0  0  0  0  0
    3.6199    0.2139   -1.4246 H   0  0  0  0  0  0
    2.3702    1.2388   -2.2084 H   0  0  0  0  0  0
    2.3078    1.3149    0.3063 H   0  0  0  0  0  0
    0.7734    0.7407   -0.4305 H   0  0  0  0  0  0
    2.8170    0.0477   -4.0683 H   0  0  0  0  0  0
    3.6595   -1.4408   -3.5192 H   0  0  0  0  0  0
    1.6811   -2.7945   -4.1536 H   0  0  0  0  0  0
    0.8386   -1.3061   -4.7027 H   0  0  0  0  0  0
    1.9971   -2.4549   -6.6562 H   0  0  0  0  0  0
    3.0672    4.6756   14.5682 H   0  0  0  0  0  0
    5.3146    4.2423   15.5013 H   0  0  0  0  0  0
    6.9589    2.9171   14.2280 H   0  0  0  0  0  0
    1.5095    4.4632   12.9293 H   0  0  0  0  0  0
    1.5482    2.9089   12.0298 H   0  0  0  0  0  0
    2.1590    4.4102   11.2554 H   0  0  0  0  0  0
    4.0775    1.4615    4.3140 H   0  0  0  0  0  0
    3.1391    1.6501   10.8315 H   0  0  0  0  0  0
  1  5  1  0  0  0
  1  2  2  0  0  0
  1 34  1  0  0  0
  2  3  1  0  0  0
  2 23  1  0  0  0
  3  4  1  0  0  0
  4  5  2  0  0  0
  4  6  1  0  0  0
  6  7  1  0  0  0
  6 58  1  0  0  0
  7 12  2  0  0  0
  7  8  1  0  0  0
  8 35  1  0  0  0
  8  9  2  0  0  0
  9 14  1  0  0  0
  9 10  1  0  0  0
 10 11  2  0  0  0
 11 13  1  0  0  0
 11 12  1  0  0  0
 13 36  1  0  0  0
 13 37  1  0  0  0
 13 38  1  0  0  0
 14 19  1  0  0  0
 14 15  1  0  0  0
 15 16  1  0  0  0
 15 39  1  0  0  0
 15 40  1  0  0  0
 16 17  1  0  0  0
 16 41  1  0  0  0
 16 42  1  0  0  0
 17 18  1  0  0  0
 17 20  1  0  0  0
 18 19  1  0  0  0
 18 43  1  0  0  0
 18 44  1  0  0  0
 19 45  1  0  0  0
 19 46  1  0  0  0
 20 21  1  0  0  0
 20 47  1  0  0  0
 20 48  1  0  0  0
 21 22  1  0  0  0
 21 49  1  0  0  0
 21 50  1  0  0  0
 22 51  1  0  0  0
 23 24  2  0  0  0
 23 25  1  0  0  0
 25 26  1  0  0  0
 25 59  1  0  0  0
 26 31  2  0  0  0
 26 27  1  0  0  0
 27 28  2  0  0  0
 27 33  1  0  0  0
 28 29  1  0  0  0
 28 52  1  0  0  0
 29 30  2  0  0  0
 29 53  1  0  0  0
 30 31  1  0  0  0
 30 54  1  0  0  0
 31 32  1  0  0  0
 33 55  1  0  0  0
 33 56  1  0  0  0
 33 57  1  0  0  0
M  END
> <s_m_source_file>
/Users/andrea/Development/mcce-charges/epik_inhibitors/output/Dasatinib/Dasatinib-input.mol2

> <i_m_source_file_index>
1

> <r_lp_tautomer_probability>
0.989852472580994

> <r_epik_Ionization_Penalty>
  1.3806

> <r_epik_Ionization_Penalty_Charging>
  0.0000

> <r_epik_Ionization_Penalty_Neutral>
  1.3806

> <r_epik_State_Penalty>
  0.4413

> <i_epik_Tot_Q>
0

$$$$
~{N}-(2-chloro-6-methyl-phenyl)-2-[[6-[4-(2-hydroxyethyl)piperazin-1-yl]-2-methyl-pyrimidin-4-yl]amino]thiazole-5-carboxamide
                    3D
 Structure written by MMmdl.
 60 63  0  0  1  0            999 V2000
    4.0228    1.9286    8.1081 C   0  0  0  0  0  0
    2.9707    1.1589    8.5581 C   0  0  0  0  0  0
    2.2122    0.3870    7.2276 S   0  0  0  0  0  0
    3.3444    1.1372    6.1785 C   0  0  0  0  0  0
    4.2383    1.9178    6.7438 N   0  0  0  0  0  0
    3.2679    0.8914    4.7931 N   0  0  0  0  0  0
    2.3959    0.1010    4.0050 C   0  0  0  0  0  0
    2.6093    0.0858    2.6417 C   0  0  0  0  0  0
    1.7388   -0.6958    1.9099 C   0  0  0  0  0  0
    0.7341   -1.4116    2.4560 N   0  0  0  0  0  0
    0.6296   -1.3144    3.7951 C   0  0  0  0  0  0
    1.4119   -0.5896    4.6175 N   0  0  0  0  0  0
   -0.4694   -2.0922    4.4356 C   0  0  0  0  0  0
    1.9212   -0.7382    0.5231 N   0  0  0  0  0  0
    1.5416   -1.9670   -0.1854 C   0  0  0  0  0  0
    2.2607   -2.0532   -1.5335 C   0  0  0  0  0  0
    2.0353   -0.8401   -2.3293 N   0  3  0  0  0  0
    2.5429    0.3325   -1.6065 C   0  0  0  0  0  0
    1.8340    0.4982   -0.2600 C   0  0  0  0  0  0
    2.6813   -0.9566   -3.6361 C   0  0  0  0  0  0
    1.8211   -1.7913   -4.5772 C   0  0  0  0  0  0
    2.4692   -1.8899   -5.8389 O   0  0  0  0  0  0
    2.4858    0.9502    9.8808 C   0  0  0  0  0  0
    1.5041    0.2119   10.1382 O   0  0  0  0  0  0
    3.2013    1.5970   10.9182 N   0  0  0  0  0  0
    2.9912    1.5584   12.3197 C   0  0  0  0  0  0
    4.0052    1.0834   13.1516 C   0  0  0  0  0  0
    3.8117    1.0399   14.5323 C   0  0  0  0  0  0
    2.6040    1.4714   15.0811 C   0  0  0  0  0  0
    1.5901    1.9464   14.2492 C   0  0  0  0  0  0
    1.7837    1.9899   12.8685 C   0  0  0  0  0  0
    0.4990    2.5861   11.8783 Cl  0  0  0  0  0  0
    5.3105    0.6136   12.5952 C   0  0  0  0  0  0
    4.5749    2.4501    8.7586 H   0  0  0  0  0  0
    4.0769    1.4623    4.3139 H   0  0  0  0  0  0
    3.3568    0.6198    2.2467 H   0  0  0  0  0  0
   -0.4479   -1.9296    5.5233 H   0  0  0  0  0  0
   -0.3337   -3.1627    4.2221 H   0  0  0  0  0  0
   -1.4374   -1.7580    4.0340 H   0  0  0  0  0  0
    1.8174   -2.8410    0.4229 H   0  0  0  0  0  0
    0.4554   -1.9693   -0.3593 H   0  0  0  0  0  0
    3.3416   -2.1690   -1.3658 H   0  0  0  0  0  0
    1.8822   -2.9192   -2.0963 H   0  0  0  0  0  0
    3.6210    0.2126   -1.4244 H   0  0  0  0  0  0
    2.3710    1.2370   -2.2085 H   0  0  0  0  0  0
    0.7772    0.7439   -0.4409 H   0  0  0  0  0  0
    2.3113    1.3187    0.2959 H   0  0  0  0  0  0
    2.8184    0.0457   -4.0681 H   0  0  0  0  0  0
    3.6613   -1.4424   -3.5188 H   0  0  0  0  0  0
    1.6834   -2.7969   -4.1531 H   0  0  0  0  0  0
    0.8405   -1.3088   -4.7025 H   0  0  0  0  0  0
    4.0596    2.2410   10.6758 H   0  0  0  0  0  0
    4.5951    0.6712   15.1892 H   0  0  0  0  0  0
    2.4533    1.4377   16.1561 H   0  0  0  0  0  0
    0.6550    2.2786   14.6932 H   0  0  0  0  0  0
    5.9620    0.2833   13.4177 H   0  0  0  0  0  0
    5.7954    1.4379   12.0517 H   0  0  0  0  0  0
    5.1346   -0.2262   11.9069 H   0  0  0  0  0  0
    0.9549   -0.7169   -2.4952 H   0  0  0  0  0  0
    1.9995   -2.4575   -6.6557 H   0  0  0  0  0  0
  1  5  1  0  0  0
  1 34  1  0  0  0
  1  2  2  0  0  0
  2 23  1  0  0  0
  2  3  1  0  0  0
  3  4  1  0  0  0
  4  6  1  0  0  0
  4  5  2  0  0  0
  6  7  1  0  0  0
  6 35  1  0  0  0
  7  8  2  0  0  0
  7 12  1  0  0  0
  8 36  1  0  0  0
  8  9  1  0  0  0
  9 14  1  0  0  0
  9 10  2  0  0  0
 10 11  1  0  0  0
 11 13  1  0  0  0
 11 12  2  0  0  0
 13 37  1  0  0  0
 13 38  1  0  0  0
 13 39  1  0  0  0
 14 19  1  0  0  0
 14 15  1  0  0  0
 15 16  1  0  0  0
 15 40  1  0  0  0
 15 41  1  0  0  0
 16 17  1  0  0  0
 16 42  1  0  0  0
 16 43  1  0  0  0
 17 18  1  0  0  0
 17 20  1  0  0  0
 17 59  1  0  0  0
 18 19  1  0  0  0
 18 44  1  0  0  0
 18 45  1  0  0  0
 19 46  1  0  0  0
 19 47  1  0  0  0
 20 21  1  0  0  0
 20 48  1  0  0  0
 20 49  1  0  0  0
 21 22  1  0  0  0
 21 50  1  0  0  0
 21 51  1  0  0  0
 22 60  1  0  0  0
 23 24  2  0  0  0
 23 25  1  0  0  0
 25 26  1  0  0  0
 25 52  1  0  0  0
 26 31  2  0  0  0
 26 27  1  0  0  0
 27 28  2  0  0  0
 27 33  1  0  0  0
 28 29  1  0  0  0
 28 53  1  0  0  0
 29 30  2  0  0  0
 29 54  1  0  0  0
 30 31  1  0  0  0
 30 55  1  0  0  0
 31 32  1  0  0  0
 33 56  1  0  0  0
 33 57  1  0  0  0
 33 58  1  0  0  0
M  CHG  1  17   1
M  END
> <s_m_source_file>
/Users/andrea/Development/mcce-charges/epik_inhibitors/output/Dasatinib/Dasatinib-input.mol2

> <i_m_source_file_index>
1

> <r_epik_Ionization_Penalty>
  0.8901

> <r_epik_Ionization_Penalty_Charging>
  0.7526

> <r_epik_Ionization_Penalty_Neutral>
  0.1375

> <r_epik_State_Penalty>
  0.4695

> <i_epik_Tot_Q>
1

$$$$
~{N}-(2-chloro-6-methyl-phenyl)-2-[[6-[4-(2-hydroxyethyl)piperazin-1-yl]-2-methyl-pyrimidin-4-yl]amino]thiazole-5-carboxamide
                    3D
 Structure written by MMmdl.
 60 63  0  0  1  0            999 V2000
    2.8912    1.0679    8.3232 C   0  0  0  0  0  0
    3.9723    1.9231    8.3673 C   0  0  0  0  0  0
    4.5696    2.1775    6.7799 S   0  0  0  0  0  0
    3.3449    1.1365    6.1786 C   0  0  0  0  0  0
    2.5297    0.6162    7.0690 N   0  0  0  0  0  0
    3.2682    0.8910    4.7931 N   0  3  0  0  0  0
    2.3957    0.1013    4.0050 C   0  0  0  0  0  0
    2.6090    0.0862    2.6417 C   0  0  0  0  0  0
    1.7375   -0.6941    1.9097 C   0  0  0  0  0  0
    0.7328   -1.4099    2.4558 N   0  0  0  0  0  0
    0.6285   -1.3130    3.7949 C   0  0  0  0  0  0
    1.4112   -0.5888    4.6174 N   0  0  0  0  0  0
   -0.4708   -2.0904    4.4354 C   0  0  0  0  0  0
    1.9190   -0.7355    0.5227 N   0  0  0  0  0  0
    1.5392   -1.9638   -0.1864 C   0  0  0  0  0  0
    2.2575   -2.0489   -1.5351 C   0  0  0  0  0  0
    2.0315   -0.8353   -2.3298 N   0  0  0  0  0  0
    2.5393    0.3368   -1.6064 C   0  0  0  0  0  0
    1.8312    0.5015   -0.2594 C   0  0  0  0  0  0
    2.6768   -0.9507   -3.6371 C   0  0  0  0  0  0
    1.8160   -1.7849   -4.5783 C   0  0  0  0  0  0
    2.4635   -1.8825   -5.8405 O   0  0  0  0  0  0
    4.5938    2.5606    9.4788 C   0  0  0  0  0  0
    5.5839    3.3227    9.3612 O   0  0  0  0  0  0
    4.0067    2.3209   10.7455 N   0  0  0  0  0  0
    4.3666    2.8310   12.0183 C   0  0  0  0  0  0
    3.4402    3.5814   12.7425 C   0  0  0  0  0  0
    3.7814    4.0894   13.9960 C   0  0  0  0  0  0
    5.0490    3.8469   14.5252 C   0  0  0  0  0  0
    5.9753    3.0965   13.8010 C   0  0  0  0  0  0
    5.6341    2.5886   12.5475 C   0  0  0  0  0  0
    6.8146    1.6648   11.6875 Cl  0  0  0  0  0  0
    2.0740    3.8593   12.2037 C   0  0  0  0  0  0
    2.4214    0.8120    9.1681 H   0  0  0  0  0  0
    3.3356    0.5936    2.1784 H   0  0  0  0  0  0
   -0.4491   -1.9282    5.5232 H   0  0  0  0  0  0
   -0.3356   -3.1609    4.2216 H   0  0  0  0  0  0
   -1.4387   -1.7557    4.0340 H   0  0  0  0  0  0
    0.4515   -1.9598   -0.3500 H   0  0  0  0  0  0
    1.8140   -2.8319    0.4308 H   0  0  0  0  0  0
    3.3386   -2.1646   -1.3680 H   0  0  0  0  0  0
    1.8788   -2.9146   -2.0982 H   0  0  0  0  0  0
    3.6176    0.2170   -1.4251 H   0  0  0  0  0  0
    2.3669    1.2418   -2.2076 H   0  0  0  0  0  0
    2.3058    1.3163    0.3071 H   0  0  0  0  0  0
    0.7713    0.7418   -0.4292 H   0  0  0  0  0  0
    2.8134    0.0519   -4.0684 H   0  0  0  0  0  0
    3.6568   -1.4364   -3.5207 H   0  0  0  0  0  0
    1.6788   -2.7908   -4.1549 H   0  0  0  0  0  0
    0.8353   -1.3025   -4.7026 H   0  0  0  0  0  0
    1.9933   -2.4496   -6.6574 H   0  0  0  0  0  0
    3.1391    1.6501   10.8315 H   0  0  0  0  0  0
    3.0672    4.6756   14.5682 H   0  0  0  0  0  0
    5.3146    4.2423   15.5013 H   0  0  0  0  0  0
    6.9589    2.9171   14.2280 H   0  0  0  0  0  0
    1.5095    4.4632   12.9293 H   0  0  0  0  0  0
    1.5482    2.9089   12.0298 H   0  0  0  0  0  0
    2.1590    4.4102   11.2554 H   0  0  0  0  0  0
    4.0775    1.4615    4.3140 H   0  0  0  0  0  0
    0.0271   -2.0389    1.8933 H   0  0  0  0  0  0
  1  5  1  0  0  0
  1  2  2  0  0  0
  1 34  1  0  0  0
  2  3  1  0  0  0
  2 23  1  0  0  0
  3  4  1  0  0  0
  4  5  2  0  0  0
  4  6  1  0  0  0
  6  7  2  0  0  0
  6 59  1  0  0  0
  7  8  1  0  0  0
  7 12  1  0  0  0
  8  9  2  0  0  0
  8 35  1  0  0  0
  9 10  1  0  0  0
  9 14  1  0  0  0
 10 11  1  0  0  0
 10 60  1  0  0  0
 11 13  1  0  0  0
 11 12  2  0  0  0
 13 36  1  0  0  0
 13 37  1  0  0  0
 13 38  1  0  0  0
 14 19  1  0  0  0
 14 15  1  0  0  0
 15 16  1  0  0  0
 15 39  1  0  0  0
 15 40  1  0  0  0
 16 17  1  0  0  0
 16 41  1  0  0  0
 16 42  1  0  0  0
 17 18  1  0  0  0
 17 20  1  0  0  0
 18 19  1  0  0  0
 18 43  1  0  0  0
 18 44  1  0  0  0
 19 45  1  0  0  0
 19 46  1  0  0  0
 20 21  1  0  0  0
 20 47  1  0  0  0
 20 48  1  0  0  0
 21 22  1  0  0  0
 21 49  1  0  0  0
 21 50  1  0  0  0
 22 51  1  0  0  0
 23 24  2  0  0  0
 23 25  1  0  0  0
 25 26  1  0  0  0
 25 52  1  0  0  0
 26 31  2  0  0  0
 26 27  1  0  0  0
 27 28  2  0  0  0
 27 33  1  0  0  0
 28 29  1  0  0  0
 28 53  1  0  0  0
 29 30  2  0  0  0
 29 54  1  0  0  0
 30 31  1  0  0  0
 30 55  1  0  0  0
 31 32  1  0  0  0
 33 56  1  0  0  0
 33 57  1  0  0  0
 33 58  1  0  0  0
M  CHG  1   6   1
M  END
> <s_m_source_file>
/Users/andrea/Development/mcce-charges/epik_inhibitors/output/Dasatinib/Dasatinib-input.mol2

> <i_m_source_file_index>
1

> <r_lp_tautomer_probability>
0.999279695788307

> <r_epik_Ionization_Penalty>
  0.7484

> <r_epik_Ionization_Penalty_Charging>
  0.0000

> <r_epik_Ionization_Penalty_Neutral>
  0.7484

> <r_epik_State_Penalty>
  2.2354

> <i_epik_Tot_Q>
1

> <s_epik_Chemistry_Notes>
This compound has an imine and may undergo hydrolysis.

$$$$
~{N}-(2-chloro-6-methyl-phenyl)-2-[[6-[4-(2-hydroxyethyl)piperazin-1-yl]-2-methyl-pyrimidin-4-yl]amino]thiazole-5-carboxamide
                    3D
 Structure written by MMmdl.
 61 64  0  0  1  0            999 V2000
    5.9008    2.7554    3.3004 C   0  0  0  0  0  0
    6.2579    3.2019    4.5555 C   0  0  0  0  0  0
    5.2005    2.5310    5.7272 S   0  0  0  0  0  0
    4.3683    1.7104    4.4705 C   0  0  0  0  0  0
    4.8177    1.8998    3.2498 N   0  0  0  0  0  0
    3.2682    0.8910    4.7931 N   0  3  0  0  0  0
    2.3957    0.1013    4.0050 C   0  0  0  0  0  0
    2.6090    0.0862    2.6417 C   0  0  0  0  0  0
    1.7375   -0.6941    1.9097 C   0  0  0  0  0  0
    0.7328   -1.4099    2.4558 N   0  0  0  0  0  0
    0.6285   -1.3130    3.7949 C   0  0  0  0  0  0
    1.4112   -0.5888    4.6174 N   0  0  0  0  0  0
   -0.4708   -2.0904    4.4354 C   0  0  0  0  0  0
    1.9190   -0.7355    0.5227 N   0  0  0  0  0  0
    1.5392   -1.9638   -0.1864 C   0  0  0  0  0  0
    2.2575   -2.0489   -1.5351 C   0  0  0  0  0  0
    2.0315   -0.8353   -2.3298 N   0  3  0  0  0  0
    2.5393    0.3368   -1.6064 C   0  0  0  0  0  0
    1.8312    0.5015   -0.2594 C   0  0  0  0  0  0
    2.6768   -0.9507   -3.6371 C   0  0  0  0  0  0
    1.8160   -1.7849   -4.5783 C   0  0  0  0  0  0
    2.4635   -1.8825   -5.8405 O   0  0  0  0  0  0
    7.3082    4.0774    4.9540 C   0  0  0  0  0  0
    7.5125    4.3963    6.1504 O   0  0  0  0  0  0
    8.1534    4.5507    3.9204 N   0  0  0  0  0  0
    9.2898    5.3947    3.9991 C   0  0  0  0  0  0
   10.5250    4.9239    3.5539 C   0  0  0  0  0  0
   11.6511    5.7438    3.6257 C   0  0  0  0  0  0
   11.5420    7.0347    4.1429 C   0  0  0  0  0  0
   10.3067    7.5056    4.5881 C   0  0  0  0  0  0
    9.1806    6.6855    4.5162 C   0  0  0  0  0  0
    7.6720    7.3123    5.0798 Cl  0  0  0  0  0  0
   10.6757    3.5459    2.9948 C   0  0  0  0  0  0
    6.4175    3.0537    2.4979 H   0  0  0  0  0  0
    3.3356    0.5936    2.1784 H   0  0  0  0  0  0
   -0.4491   -1.9282    5.5232 H   0  0  0  0  0  0
   -0.3356   -3.1609    4.2216 H   0  0  0  0  0  0
   -1.4387   -1.7557    4.0340 H   0  0  0  0  0  0
    0.4515   -1.9598   -0.3500 H   0  0  0  0  0  0
    1.8140   -2.8319    0.4308 H   0  0  0  0  0  0
    3.3386   -2.1646   -1.3680 H   0  0  0  0  0  0
    1.8788   -2.9146   -2.0982 H   0  0  0  0  0  0
    3.6176    0.2170   -1.4251 H   0  0  0  0  0  0
    2.3669    1.2418   -2.2076 H   0  0  0  0  0  0
    2.3058    1.3163    0.3071 H   0  0  0  0  0  0
    0.7713    0.7418   -0.4292 H   0  0  0  0  0  0
    2.8134    0.0519   -4.0684 H   0  0  0  0  0  0
    3.6568   -1.4364   -3.5207 H   0  0  0  0  0  0
    1.6788   -2.7908   -4.1549 H   0  0  0  0  0  0
    0.8353   -1.3025   -4.7026 H   0  0  0  0  0  0
    1.9933   -2.4496   -6.6574 H   0  0  0  0  0  0
    7.9607    4.2618    2.8767 H   0  0  0  0  0  0
   12.6182    5.3865    3.2820 H   0  0  0  0  0  0
   12.4187    7.6732    4.1987 H   0  0  0  0  0  0
   10.2392    8.5140    4.9885 H   0  0  0  0  0  0
   11.7241    3.3800    2.7063 H   0  0  0  0  0  0
   10.0303    3.4363    2.1108 H   0  0  0  0  0  0
   10.3835    2.8074    3.7560 H   0  0  0  0  0  0
    3.1366    0.9338    5.8844 H   0  0  0  0  0  0
    0.0271   -2.0389    1.8933 H   0  0  0  0  0  0
    0.9510   -0.7122   -2.4949 H   0  0  0  0  0  0
  1  5  1  0  0  0
  1  2  2  0  0  0
  1 34  1  0  0  0
  2  3  1  0  0  0
  2 23  1  0  0  0
  3  4  1  0  0  0
  4  5  2  0  0  0
  4  6  1  0  0  0
  6  7  2  0  0  0
  6 59  1  0  0  0
  7  8  1  0  0  0
  7 12  1  0  0  0
  8  9  2  0  0  0
  8 35  1  0  0  0
  9 10  1  0  0  0
  9 14  1  0  0  0
 10 11  1  0  0  0
 10 60  1  0  0  0
 11 13  1  0  0  0
 11 12  2  0  0  0
 13 36  1  0  0  0
 13 37  1  0  0  0
 13 38  1  0  0  0
 14 19  1  0  0  0
 14 15  1  0  0  0
 15 16  1  0  0  0
 15 39  1  0  0  0
 15 40  1  0  0  0
 16 17  1  0  0  0
 16 41  1  0  0  0
 16 42  1  0  0  0
 17 18  1  0  0  0
 17 20  1  0  0  0
 17 61  1  0  0  0
 18 19  1  0  0  0
 18 43  1  0  0  0
 18 44  1  0  0  0
 19 45  1  0  0  0
 19 46  1  0  0  0
 20 21  1  0  0  0
 20 47  1  0  0  0
 20 48  1  0  0  0
 21 22  1  0  0  0
 21 49  1  0  0  0
 21 50  1  0  0  0
 22 51  1  0  0  0
 23 24  2  0  0  0
 23 25  1  0  0  0
 25 26  1  0  0  0
 25 52  1  0  0  0
 26 31  2  0  0  0
 26 27  1  0  0  0
 27 28  2  0  0  0
 27 33  1  0  0  0
 28 29  1  0  0  0
 28 53  1  0  0  0
 29 30  2  0  0  0
 29 54  1  0  0  0
 30 31  1  0  0  0
 30 55  1  0  0  0
 31 32  1  0  0  0
 33 56  1  0  0  0
 33 57  1  0  0  0
 33 58  1  0  0  0
M  CHG  2   6   1  17   1
M  END
> <s_m_source_file>
/Users/andrea/Development/mcce-charges/epik_inhibitors/output/Dasatinib/Dasatinib-input.mol2

> <i_m_source_file_index>
1

> <r_lp_tautomer_probability>
0.999279695788307

> <r_epik_Ionization_Penalty>
  1.0697

> <r_epik_Ionization_Penalty_Charging>
  0.3479

> <r_epik_Ionization_Penalty_Neutral>
  0.7218

> <r_epik_State_Penalty>
  2.4061

> <i_epik_Tot_Q>
2

> <s_epik_Chemistry_Notes>
This compound has an imine and may undergo hydrolysis.

$$$$
~{N}-(2-chloro-6-methyl-phenyl)-2-[[6-[4-(2-hydroxyethyl)piperazin-1-yl]-2-methyl-pyrimidin-4-yl]amino]thiazole-5-carboxamide
                    3D
 Structure written by MMmdl.
 60 63  0  0  1  0            999 V2000
    5.9008    2.7554    3.3004 C   0  0  0  0  0  0
    6.2579    3.2019    4.5555 C   0  0  0  0  0  0
    5.2005    2.5310    5.7272 S   0  0  0  0  0  0
    4.3683    1.7104    4.4705 C   0  0  0  0  0  0
    4.8177    1.8998    3.2498 N   0  0  0  0  0  0
    3.2682    0.8910    4.7931 N   0  3  0  0  0  0
    2.3957    0.1013    4.0050 C   0  0  0  0  0  0
    2.6090    0.0862    2.6417 C   0  0  0  0  0  0
    1.7375   -0.6941    1.9097 C   0  0  0  0  0  0
    0.7328   -1.4099    2.4558 N   0  0  0  0  0  0
    0.6285   -1.3130    3.7949 C   0  0  0  0  0  0
    1.4112   -0.5888    4.6174 N   0  0  0  0  0  0
   -0.4708   -2.0904    4.4354 C   0  0  0  0  0  0
    1.9190   -0.7355    0.5227 N   0  0  0  0  0  0
    1.5392   -1.9638   -0.1864 C   0  0  0  0  0  0
    2.2575   -2.0489   -1.5351 C   0  0  0  0  0  0
    2.0315   -0.8353   -2.3298 N   0  0  0  0  0  0
    2.5393    0.3368   -1.6064 C   0  0  0  0  0  0
    1.8312    0.5015   -0.2594 C   0  0  0  0  0  0
    2.6768   -0.9507   -3.6371 C   0  0  0  0  0  0
    1.8160   -1.7849   -4.5783 C   0  0  0  0  0  0
    2.4635   -1.8825   -5.8405 O   0  0  0  0  0  0
    7.3082    4.0774    4.9540 C   0  0  0  0  0  0
    7.5125    4.3963    6.1504 O   0  0  0  0  0  0
    8.1534    4.5507    3.9204 N   0  0  0  0  0  0
    9.2898    5.3947    3.9991 C   0  0  0  0  0  0
   10.5250    4.9239    3.5539 C   0  0  0  0  0  0
   11.6511    5.7438    3.6257 C   0  0  0  0  0  0
   11.5420    7.0347    4.1429 C   0  0  0  0  0  0
   10.3067    7.5056    4.5881 C   0  0  0  0  0  0
    9.1806    6.6855    4.5162 C   0  0  0  0  0  0
    7.6720    7.3123    5.0798 Cl  0  0  0  0  0  0
   10.6757    3.5459    2.9948 C   0  0  0  0  0  0
    6.4175    3.0537    2.4979 H   0  0  0  0  0  0
    3.3356    0.5936    2.1784 H   0  0  0  0  0  0
   -0.4491   -1.9282    5.5232 H   0  0  0  0  0  0
   -0.3356   -3.1609    4.2216 H   0  0  0  0  0  0
   -1.4387   -1.7557    4.0340 H   0  0  0  0  0  0
    0.4515   -1.9598   -0.3500 H   0  0  0  0  0  0
    1.8140   -2.8319    0.4308 H   0  0  0  0  0  0
    3.3386   -2.1646   -1.3680 H   0  0  0  0  0  0
    1.8788   -2.9146   -2.0982 H   0  0  0  0  0  0
    3.6176    0.2170   -1.4251 H   0  0  0  0  0  0
    2.3669    1.2418   -2.2076 H   0  0  0  0  0  0
    2.3058    1.3163    0.3071 H   0  0  0  0  0  0
    0.7713    0.7418   -0.4292 H   0  0  0  0  0  0
    2.8134    0.0519   -4.0684 H   0  0  0  0  0  0
    3.6568   -1.4364   -3.5207 H   0  0  0  0  0  0
    1.6788   -2.7908   -4.1549 H   0  0  0  0  0  0
    0.8353   -1.3025   -4.7026 H   0  0  0  0  0  0
    1.9933   -2.4496   -6.6574 H   0  0  0  0  0  0
    7.9607    4.2618    2.8767 H   0  0  0  0  0  0
   12.6182    5.3865    3.2820 H   0  0  0  0  0  0
   12.4187    7.6732    4.1987 H   0  0  0  0  0  0
   10.2392    8.5140    4.9885 H   0  0  0  0  0  0
   11.7241    3.3800    2.7063 H   0  0  0  0  0  0
   10.0303    3.4363    2.1108 H   0  0  0  0  0  0
   10.3835    2.8074    3.7560 H   0  0  0  0  0  0
    3.1366    0.9338    5.8844 H   0  0  0  0  0  0
    0.0271   -2.0389    1.8933 H   0  0  0  0  0  0
  1  5  1  0  0  0
  1  2  2  0  0  0
  1 34  1  0  0  0
  2  3  1  0  0  0
  2 23  1  0  0  0
  3  4  1  0  0  0
  4  5  2  0  0  0
  4  6  1  0  0  0
  6  7  2  0  0  0
  6 59  1  0  0  0
  7  8  1  0  0  0
  7 12  1  0  0  0
  8  9  2  0  0  0
  8 35  1  0  0  0
  9 10  1  0  0  0
  9 14  1  0  0  0
 10 11  1  0  0  0
 10 60  1  0  0  0
 11 13  1  0  0  0
 11 12  2  0  0  0
 13 36  1  0  0  0
 13 37  1  0  0  0
 13 38  1  0  0  0
 14 19  1  0  0  0
 14 15  1  0  0  0
 15 16  1  0  0  0
 15 39  1  0  0  0
 15 40  1  0  0  0
 16 17  1  0  0  0
 16 41  1  0  0  0
 16 42  1  0  0  0
 17 18  1  0  0  0
 17 20  1  0  0  0
 18 19  1  0  0  0
 18 43  1  0  0  0
 18 44  1  0  0  0
 19 45  1  0  0  0
 19 46  1  0  0  0
 20 21  1  0  0  0
 20 47  1  0  0  0
 20 48  1  0  0  0
 21 22  1  0  0  0
 21 49  1  0  0  0
 21 50  1  0  0  0
 22 51  1  0  0  0
 23 24  2  0  0  0
 23 25  1  0  0  0
 25 26  1  0  0  0
 25 52  1  0  0  0
 26 31  2  0  0  0
 26 27  1  0  0  0
 27 28  2  0  0  0
 27 33  1  0  0  0
 28 29  1  0  0  0
 28 53  1  0  0  0
 29 30  2  0  0  0
 29 54  1  0  0  0
 30 31  1  0  0  0
 30 55  1  0  0  0
 31 32  1  0  0  0
 33 56  1  0  0  0
 33 57  1  0  0  0
 33 58  1  0  0  0
M  CHG  1   6   1
M  END
> <s_m_source_file>
/Users/andrea/Development/mcce-charges/epik_inhibitors/output/Dasatinib/Dasatinib-input.mol2

> <i_m_source_file_index>
1

> <r_lp_tautomer_probability>
0.999279695788307

> <r_epik_Ionization_Penalty>
  0.7484

> <r_epik_Ionization_Penalty_Charging>
  0.0000

> <r_epik_Ionization_Penalty_Neutral>
  0.7484

> <r_epik_State_Penalty>
  2.4103

> <i_epik_Tot_Q>
1

> <s_epik_Chemistry_Notes>
This compound has an imine and may undergo hydrolysis.

$$$$
~{N}-(2-chloro-6-methyl-phenyl)-2-[[6-[4-(2-hydroxyethyl)piperazin-1-yl]-2-methyl-pyrimidin-4-yl]amino]thiazole-5-carboxamide
                    3D
 Structure written by MMmdl.
 61 64  0  0  1  0            999 V2000
    2.8912    1.0679    8.3232 C   0  0  0  0  0  0
    3.9723    1.9231    8.3673 C   0  0  0  0  0  0
    4.5696    2.1775    6.7799 S   0  0  0  0  0  0
    3.3449    1.1365    6.1786 C   0  0  0  0  0  0
    2.5297    0.6162    7.0690 N   0  0  0  0  0  0
    3.2682    0.8910    4.7931 N   0  3  0  0  0  0
    2.3957    0.1013    4.0050 C   0  0  0  0  0  0
    2.6090    0.0862    2.6417 C   0  0  0  0  0  0
    1.7375   -0.6941    1.9097 C   0  0  0  0  0  0
    0.7328   -1.4099    2.4558 N   0  0  0  0  0  0
    0.6285   -1.3130    3.7949 C   0  0  0  0  0  0
    1.4112   -0.5888    4.6174 N   0  0  0  0  0  0
   -0.4708   -2.0904    4.4354 C   0  0  0  0  0  0
    1.9190   -0.7355    0.5227 N   0  0  0  0  0  0
    1.5392   -1.9638   -0.1864 C   0  0  0  0  0  0
    2.2575   -2.0489   -1.5351 C   0  0  0  0  0  0
    2.0315   -0.8353   -2.3298 N   0  3  0  0  0  0
    2.5393    0.3368   -1.6064 C   0  0  0  0  0  0
    1.8312    0.5015   -0.2594 C   0  0  0  0  0  0
    2.6768   -0.9507   -3.6371 C   0  0  0  0  0  0
    1.8160   -1.7849   -4.5783 C   0  0  0  0  0  0
    2.4635   -1.8825   -5.8405 O   0  0  0  0  0  0
    4.5938    2.5606    9.4788 C   0  0  0  0  0  0
    5.5839    3.3227    9.3612 O   0  0  0  0  0  0
    4.0067    2.3209   10.7455 N   0  0  0  0  0  0
    4.3666    2.8310   12.0183 C   0  0  0  0  0  0
    3.4402    3.5814   12.7425 C   0  0  0  0  0  0
    3.7814    4.0894   13.9960 C   0  0  0  0  0  0
    5.0490    3.8469   14.5252 C   0  0  0  0  0  0
    5.9753    3.0965   13.8010 C   0  0  0  0  0  0
    5.6341    2.5886   12.5475 C   0  0  0  0  0  0
    6.8146    1.6648   11.6875 Cl  0  0  0  0  0  0
    2.0740    3.8593   12.2037 C   0  0  0  0  0  0
    2.4214    0.8120    9.1681 H   0  0  0  0  0  0
    3.3356    0.5936    2.1784 H   0  0  0  0  0  0
   -0.4491   -1.9282    5.5232 H   0  0  0  0  0  0
   -0.3356   -3.1609    4.2216 H   0  0  0  0  0  0
   -1.4387   -1.7557    4.0340 H   0  0  0  0  0  0
    0.4515   -1.9598   -0.3500 H   0  0  0  0  0  0
    1.8140   -2.8319    0.4308 H   0  0  0  0  0  0
    3.3386   -2.1646   -1.3680 H   0  0  0  0  0  0
    1.8788   -2.9146   -2.0982 H   0  0  0  0  0  0
    3.6176    0.2170   -1.4251 H   0  0  0  0  0  0
    2.3669    1.2418   -2.2076 H   0  0  0  0  0  0
    2.3058    1.3163    0.3071 H   0  0  0  0  0  0
    0.7713    0.7418   -0.4292 H   0  0  0  0  0  0
    2.8134    0.0519   -4.0684 H   0  0  0  0  0  0
    3.6568   -1.4364   -3.5207 H   0  0  0  0  0  0
    1.6788   -2.7908   -4.1549 H   0  0  0  0  0  0
    0.8353   -1.3025   -4.7026 H   0  0  0  0  0  0
    1.9933   -2.4496   -6.6574 H   0  0  0  0  0  0
    3.1391    1.6501   10.8315 H   0  0  0  0  0  0
    3.0672    4.6756   14.5682 H   0  0  0  0  0  0
    5.3146    4.2423   15.5013 H   0  0  0  0  0  0
    6.9589    2.9171   14.2280 H   0  0  0  0  0  0
    1.5095    4.4632   12.9293 H   0  0  0  0  0  0
    1.5482    2.9089   12.0298 H   0  0  0  0  0  0
    2.1590    4.4102   11.2554 H   0  0  0  0  0  0
    4.0775    1.4615    4.3140 H   0  0  0  0  0  0
    0.0271   -2.0389    1.8933 H   0  0  0  0  0  0
    0.9510   -0.7122   -2.4949 H   0  0  0  0  0  0
  1  5  1  0  0  0
  1  2  2  0  0  0
  1 34  1  0  0  0
  2  3  1  0  0  0
  2 23  1  0  0  0
  3  4  1  0  0  0
  4  5  2  0  0  0
  4  6  1  0  0  0
  6  7  2  0  0  0
  6 59  1  0  0  0
  7  8  1  0  0  0
  7 12  1  0  0  0
  8  9  2  0  0  0
  8 35  1  0  0  0
  9 10  1  0  0  0
  9 14  1  0  0  0
 10 11  1  0  0  0
 10 60  1  0  0  0
 11 13  1  0  0  0
 11 12  2  0  0  0
 13 36  1  0  0  0
 13 37  1  0  0  0
 13 38  1  0  0  0
 14 19  1  0  0  0
 14 15  1  0  0  0
 15 16  1  0  0  0
 15 39  1  0  0  0
 15 40  1  0  0  0
 16 17  1  0  0  0
 16 41  1  0  0  0
 16 42  1  0  0  0
 17 18  1  0  0  0
 17 20  1  0  0  0
 17 61  1  0  0  0
 18 19  1  0  0  0
 18 43  1  0  0  0
 18 44  1  0  0  0
 19 45  1  0  0  0
 19 46  1  0  0  0
 20 21  1  0  0  0
 20 47  1  0  0  0
 20 48  1  0  0  0
 21 22  1  0  0  0
 21 49  1  0  0  0
 21 50  1  0  0  0
 22 51  1  0  0  0
 23 24  2  0  0  0
 23 25  1  0  0  0
 25 26  1  0  0  0
 25 52  1  0  0  0
 26 31  2  0  0  0
 26 27  1  0  0  0
 27 28  2  0  0  0
 27 33  1  0  0  0
 28 29  1  0  0  0
 28 53  1  0  0  0
 29 30  2  0  0  0
 29 54  1  0  0  0
 30 31  1  0  0  0
 30 55  1  0  0  0
 31 32  1  0  0  0
 33 56  1  0  0  0
 33 57  1  0  0  0
 33 58  1  0  0  0
M  CHG  2   6   1  17   1
M  END
> <s_m_source_file>
/Users/andrea/Development/mcce-charges/epik_inhibitors/output/Dasatinib/Dasatinib-input.mol2

> <i_m_source_file_index>
1

> <r_lp_tautomer_probability>
0.999279695788307

> <r_epik_Ionization_Penalty>
  1.0697

> <r_epik_Ionization_Penalty_Charging>
  0.3479

> <r_epik_Ionization_Penalty_Neutral>
  0.7218

> <r_epik_State_Penalty>
  2.5074

> <i_epik_Tot_Q>
2

> <s_epik_Chemistry_Notes>
This compound has an imine and may undergo hydrolysis.

$$$$
~{N}-(2-chloro-6-methyl-phenyl)-2-[[6-[4-(2-hydroxyethyl)piperazin-1-yl]-2-methyl-pyrimidin-4-yl]amino]thiazole-5-carboxamide
                    3D
 Structure written by MMmdl.
 60 63  0  0  1  0            999 V2000
    2.8912    1.0679    8.3232 C   0  0  0  0  0  0
    3.9723    1.9231    8.3673 C   0  0  0  0  0  0
    4.5696    2.1775    6.7799 S   0  0  0  0  0  0
    3.3449    1.1365    6.1786 C   0  0  0  0  0  0
    2.5297    0.6162    7.0690 N   0  0  0  0  0  0
    3.2682    0.8910    4.7931 N   0  0  0  0  0  0
    2.3957    0.1013    4.0050 C   0  0  0  0  0  0
    2.6090    0.0862    2.6417 C   0  0  0  0  0  0
    1.7376   -0.6943    1.9097 C   0  0  0  0  0  0
    0.7328   -1.4099    2.4558 N   0  0  0  0  0  0
    0.6283   -1.3128    3.7949 C   0  0  0  0  0  0
    1.4111   -0.5886    4.6174 N   0  3  0  0  0  0
   -0.4711   -2.0900    4.4354 C   0  0  0  0  0  0
    1.9199   -0.7366    0.5229 N   0  0  0  0  0  0
    1.5399   -1.9651   -0.1857 C   0  0  0  0  0  0
    2.2588   -2.0514   -1.5340 C   0  0  0  0  0  0
    2.0338   -0.8381   -2.3295 N   0  0  0  0  0  0
    2.5418    0.3342   -1.6066 C   0  0  0  0  0  0
    1.8331    0.5000   -0.2600 C   0  0  0  0  0  0
    2.6797   -0.9547   -3.6364 C   0  0  0  0  0  0
    1.8191   -1.7889   -4.5775 C   0  0  0  0  0  0
    2.4671   -1.8876   -5.8394 O   0  0  0  0  0  0
    4.5938    2.5606    9.4788 C   0  0  0  0  0  0
    5.5839    3.3227    9.3612 O   0  0  0  0  0  0
    4.0067    2.3209   10.7455 N   0  0  0  0  0  0
    4.3666    2.8310   12.0183 C   0  0  0  0  0  0
    3.4402    3.5814   12.7425 C   0  0  0  0  0  0
    3.7814    4.0894   13.9960 C   0  0  0  0  0  0
    5.0490    3.8469   14.5252 C   0  0  0  0  0  0
    5.9753    3.0965   13.8010 C   0  0  0  0  0  0
    5.6341    2.5886   12.5475 C   0  0  0  0  0  0
    6.8146    1.6648   11.6875 Cl  0  0  0  0  0  0
    2.0740    3.8593   12.2037 C   0  0  0  0  0  0
    2.3237    0.7373    9.1834 H   0  0  0  0  0  0
    3.3354    0.5938    2.1783 H   0  0  0  0  0  0
   -1.0335   -2.6346    3.6626 H   0  0  0  0  0  0
   -1.1470   -1.4017    4.9640 H   0  0  0  0  0  0
   -0.0441   -2.8070    5.1519 H   0  0  0  0  0  0
    0.4522   -1.9607   -0.3499 H   0  0  0  0  0  0
    1.8139   -2.8330    0.4321 H   0  0  0  0  0  0
    3.3398   -2.1676   -1.3663 H   0  0  0  0  0  0
    1.8800   -2.9173   -2.0968 H   0  0  0  0  0  0
    3.6199    0.2139   -1.4246 H   0  0  0  0  0  0
    2.3702    1.2388   -2.2084 H   0  0  0  0  0  0
    2.3078    1.3149    0.3063 H   0  0  0  0  0  0
    0.7734    0.7407   -0.4305 H   0  0  0  0  0  0
    2.8170    0.0477   -4.0683 H   0  0  0  0  0  0
    3.6595   -1.4408   -3.5192 H   0  0  0  0  0  0
    1.6811   -2.7945   -4.1536 H   0  0  0  0  0  0
    0.8386   -1.3061   -4.7027 H   0  0  0  0  0  0
    1.9971   -2.4549   -6.6562 H   0  0  0  0  0  0
    3.1391    1.6501   10.8315 H   0  0  0  0  0  0
    3.0672    4.6756   14.5682 H   0  0  0  0  0  0
    5.3146    4.2423   15.5013 H   0  0  0  0  0  0
    6.9589    2.9171   14.2280 H   0  0  0  0  0  0
    1.5095    4.4632   12.9293 H   0  0  0  0  0  0
    1.5482    2.9089   12.0298 H   0  0  0  0  0  0
    2.1590    4.4102   11.2554 H   0  0  0  0  0  0
    4.0775    1.4615    4.3140 H   0  0  0  0  0  0
    1.2216   -0.5917    5.7010 H   0  0  0  0  0  0
  1  5  1  0  0  0
  1  2  2  0  0  0
  1 34  1  0  0  0
  2  3  1  0  0  0
  2 23  1  0  0  0
  3  4  1  0  0  0
  4  5  2  0  0  0
  4  6  1  0  0  0
  6  7  1  0  0  0
  6 59  1  0  0  0
  7 12  2  0  0  0
  7  8  1  0  0  0
  8 35  1  0  0  0
  8  9  2  0  0  0
  9 14  1  0  0  0
  9 10  1  0  0  0
 10 11  2  0  0  0
 11 13  1  0  0  0
 11 12  1  0  0  0
 12 60  1  0  0  0
 13 36  1  0  0  0
 13 37  1  0  0  0
 13 38  1  0  0  0
 14 19  1  0  0  0
 14 15  1  0  0  0
 15 16  1  0  0  0
 15 39  1  0  0  0
 15 40  1  0  0  0
 16 17  1  0  0  0
 16 41  1  0  0  0
 16 42  1  0  0  0
 17 18  1  0  0  0
 17 20  1  0  0  0
 18 19  1  0  0  0
 18 43  1  0  0  0
 18 44  1  0  0  0
 19 45  1  0  0  0
 19 46  1  0  0  0
 20 21  1  0  0  0
 20 47  1  0  0  0
 20 48  1  0  0  0
 21 22  1  0  0  0
 21 49  1  0  0  0
 21 50  1  0  0  0
 22 51  1  0  0  0
 23 24  2  0  0  0
 23 25  1  0  0  0
 25 26  1  0  0  0
 25 52  1  0  0  0
 26 31  2  0  0  0
 26 27  1  0  0  0
 27 28  2  0  0  0
 27 33  1  0  0  0
 28 29  1  0  0  0
 28 53  1  0  0  0
 29 30  2  0  0  0
 29 54  1  0  0  0
 30 31  1  0  0  0
 30 55  1  0  0  0
 31 32  1  0  0  0
 33 56  1  0  0  0
 33 57  1  0  0  0
 33 58  1  0  0  0
M  CHG  1  12   1
M  END
> <s_m_source_file>
/Users/andrea/Development/mcce-charges/epik_inhibitors/output/Dasatinib/Dasatinib-input.mol2

> <i_m_source_file_index>
1

> <r_lp_tautomer_probability>
0.000712994788381179

> <r_epik_Ionization_Penalty>
  0.2889

> <r_epik_Ionization_Penalty_Charging>
  0.0881

> <r_epik_Ionization_Penalty_Neutral>
  0.2009

> <r_epik_State_Penalty>
  4.7662

> <i_epik_Tot_Q>
1

$$$$
~{N}-(2-chloro-6-methyl-phenyl)-2-[[6-[4-(2-hydroxyethyl)piperazin-1-yl]-2-methyl-pyrimidin-4-yl]amino]thiazole-5-carboxamide
                    3D
 Structure written by MMmdl.
 59 62  0  0  1  0            999 V2000
    2.8912    1.0679    8.3232 C   0  0  0  0  0  0
    3.9723    1.9231    8.3673 C   0  0  0  0  0  0
    4.5696    2.1775    6.7799 S   0  0  0  0  0  0
    3.3449    1.1365    6.1786 C   0  0  0  0  0  0
    2.5297    0.6162    7.0690 N   0  0  0  0  0  0
    3.2682    0.8910    4.7931 N   0  0  0  0  0  0
    2.3957    0.1013    4.0050 C   0  0  0  0  0  0
    2.6090    0.0862    2.6417 C   0  0  0  0  0  0
    1.7376   -0.6943    1.9097 C   0  0  0  0  0  0
    0.7328   -1.4099    2.4558 N   0  0  0  0  0  0
    0.6283   -1.3128    3.7949 C   0  0  0  0  0  0
    1.4111   -0.5886    4.6174 N   0  0  0  0  0  0
   -0.4711   -2.0900    4.4354 C   0  0  0  0  0  0
    1.9199   -0.7366    0.5229 N   0  0  0  0  0  0
    1.5399   -1.9651   -0.1857 C   0  0  0  0  0  0
    2.2588   -2.0514   -1.5340 C   0  0  0  0  0  0
    2.0338   -0.8381   -2.3295 N   0  3  0  0  0  0
    2.5418    0.3342   -1.6066 C   0  0  0  0  0  0
    1.8331    0.5000   -0.2600 C   0  0  0  0  0  0
    2.6797   -0.9547   -3.6364 C   0  0  0  0  0  0
    1.8191   -1.7889   -4.5775 C   0  0  0  0  0  0
    2.4671   -1.8876   -5.8394 O   0  0  0  0  0  0
    4.5938    2.5606    9.4788 C   0  0  0  0  0  0
    5.5839    3.3227    9.3612 O   0  5  0  0  0  0
    4.0067    2.3209   10.7455 N   0  0  0  0  0  0
    4.3666    2.8310   12.0183 C   0  0  0  0  0  0
    3.4402    3.5814   12.7425 C   0  0  0  0  0  0
    3.7814    4.0894   13.9960 C   0  0  0  0  0  0
    5.0490    3.8469   14.5252 C   0  0  0  0  0  0
    5.9753    3.0965   13.8010 C   0  0  0  0  0  0
    5.6341    2.5886   12.5475 C   0  0  0  0  0  0
    6.8146    1.6648   11.6875 Cl  0  0  0  0  0  0
    2.0740    3.8593   12.2037 C   0  0  0  0  0  0
    2.3237    0.7373    9.1834 H   0  0  0  0  0  0
    3.3354    0.5938    2.1783 H   0  0  0  0  0  0
   -1.0335   -2.6346    3.6626 H   0  0  0  0  0  0
   -1.1470   -1.4017    4.9640 H   0  0  0  0  0  0
   -0.0441   -2.8070    5.1519 H   0  0  0  0  0  0
    0.4522   -1.9607   -0.3499 H   0  0  0  0  0  0
    1.8139   -2.8330    0.4321 H   0  0  0  0  0  0
    3.3398   -2.1676   -1.3663 H   0  0  0  0  0  0
    1.8800   -2.9173   -2.0968 H   0  0  0  0  0  0
    3.6199    0.2139   -1.4246 H   0  0  0  0  0  0
    2.3702    1.2388   -2.2084 H   0  0  0  0  0  0
    2.3078    1.3149    0.3063 H   0  0  0  0  0  0
    0.7734    0.7407   -0.4305 H   0  0  0  0  0  0
    2.8170    0.0477   -4.0683 H   0  0  0  0  0  0
    3.6595   -1.4408   -3.5192 H   0  0  0  0  0  0
    1.6811   -2.7945   -4.1536 H   0  0  0  0  0  0
    0.8386   -1.3061   -4.7027 H   0  0  0  0  0  0
    1.9971   -2.4549   -6.6562 H   0  0  0  0  0  0
    3.0672    4.6756   14.5682 H   0  0  0  0  0  0
    5.3146    4.2423   15.5013 H   0  0  0  0  0  0
    6.9589    2.9171   14.2280 H   0  0  0  0  0  0
    1.5095    4.4632   12.9293 H   0  0  0  0  0  0
    1.5482    2.9089   12.0298 H   0  0  0  0  0  0
    2.1590    4.4102   11.2554 H   0  0  0  0  0  0
    4.0775    1.4615    4.3140 H   0  0  0  0  0  0
    0.9534   -0.7146   -2.4953 H   0  0  0  0  0  0
  1  5  1  0  0  0
  1  2  2  0  0  0
  1 34  1  0  0  0
  2  3  1  0  0  0
  2 23  1  0  0  0
  3  4  1  0  0  0
  4  5  2  0  0  0
  4  6  1  0  0  0
  6  7  1  0  0  0
  6 58  1  0  0  0
  7 12  2  0  0  0
  7  8  1  0  0  0
  8 35  1  0  0  0
  8  9  2  0  0  0
  9 14  1  0  0  0
  9 10  1  0  0  0
 10 11  2  0  0  0
 11 13  1  0  0  0
 11 12  1  0  0  0
 13 36  1  0  0  0
 13 37  1  0  0  0
 13 38  1  0  0  0
 14 19  1  0  0  0
 14 15  1  0  0  0
 15 16  1  0  0  0
 15 39  1  0  0  0
 15 40  1  0  0  0
 16 17  1  0  0  0
 16 41  1  0  0  0
 16 42  1  0  0  0
 17 18  1  0  0  0
 17 20  1  0  0  0
 17 59  1  0  0  0
 18 19  1  0  0  0
 18 43  1  0  0  0
 18 44  1  0  0  0
 19 45  1  0  0  0
 19 46  1  0  0  0
 20 21  1  0  0  0
 20 47  1  0  0  0
 20 48  1  0  0  0
 21 22  1  0  0  0
 21 49  1  0  0  0
 21 50  1  0  0  0
 22 51  1  0  0  0
 23 24  1  0  0  0
 23 25  2  0  0  0
 25 26  1  0  0  0
 26 31  2  0  0  0
 26 27  1  0  0  0
 27 28  2  0  0  0
 27 33  1  0  0  0
 28 29  1  0  0  0
 28 52  1  0  0  0
 29 30  2  0  0  0
 29 53  1  0  0  0
 30 31  1  0  0  0
 30 54  1  0  0  0
 31 32  1  0  0  0
 33 55  1  0  0  0
 33 56  1  0  0  0
 33 57  1  0  0  0
M  CHG  2  17   1  24  -1
M  END
> <s_m_source_file>
/Users/andrea/Development/mcce-charges/epik_inhibitors/output/Dasatinib/Dasatinib-input.mol2

> <i_m_source_file_index>
1

> <r_epik_Ionization_Penalty>
  4.9794

> <r_epik_Ionization_Penalty_Charging>
  4.8425

> <r_epik_Ionization_Penalty_Neutral>
  0.1369

> <r_epik_State_Penalty>
  5.5097

> <i_epik_Tot_Q>
0

$$$$
~{N}-(2-chloro-6-methyl-phenyl)-2-[[6-[4-(2-hydroxyethyl)piperazin-1-yl]-2-methyl-pyrimidin-4-yl]amino]thiazole-5-carboxamide
                    3D
 Structure written by MMmdl.
 58 61  0  0  1  0            999 V2000
    2.8912    1.0679    8.3232 C   0  0  0  0  0  0
    3.9723    1.9231    8.3673 C   0  0  0  0  0  0
    4.5696    2.1775    6.7799 S   0  0  0  0  0  0
    3.3449    1.1365    6.1786 C   0  0  0  0  0  0
    2.5297    0.6162    7.0690 N   0  0  0  0  0  0
    3.2682    0.8910    4.7931 N   0  0  0  0  0  0
    2.3957    0.1013    4.0050 C   0  0  0  0  0  0
    2.6090    0.0862    2.6417 C   0  0  0  0  0  0
    1.7376   -0.6943    1.9097 C   0  0  0  0  0  0
    0.7328   -1.4099    2.4558 N   0  0  0  0  0  0
    0.6283   -1.3128    3.7949 C   0  0  0  0  0  0
    1.4111   -0.5886    4.6174 N   0  0  0  0  0  0
   -0.4711   -2.0900    4.4354 C   0  0  0  0  0  0
    1.9199   -0.7366    0.5229 N   0  0  0  0  0  0
    1.5399   -1.9651   -0.1857 C   0  0  0  0  0  0
    2.2588   -2.0514   -1.5340 C   0  0  0  0  0  0
    2.0338   -0.8381   -2.3295 N   0  0  0  0  0  0
    2.5418    0.3342   -1.6066 C   0  0  0  0  0  0
    1.8331    0.5000   -0.2600 C   0  0  0  0  0  0
    2.6797   -0.9547   -3.6364 C   0  0  0  0  0  0
    1.8191   -1.7889   -4.5775 C   0  0  0  0  0  0
    2.4671   -1.8876   -5.8394 O   0  0  0  0  0  0
    4.5938    2.5606    9.4788 C   0  0  0  0  0  0
    5.5839    3.3227    9.3612 O   0  5  0  0  0  0
    4.0067    2.3209   10.7455 N   0  0  0  0  0  0
    4.3666    2.8310   12.0183 C   0  0  0  0  0  0
    3.4402    3.5814   12.7425 C   0  0  0  0  0  0
    3.7814    4.0894   13.9960 C   0  0  0  0  0  0
    5.0490    3.8469   14.5252 C   0  0  0  0  0  0
    5.9753    3.0965   13.8010 C   0  0  0  0  0  0
    5.6341    2.5886   12.5475 C   0  0  0  0  0  0
    6.8146    1.6648   11.6875 Cl  0  0  0  0  0  0
    2.0740    3.8593   12.2037 C   0  0  0  0  0  0
    2.3237    0.7373    9.1834 H   0  0  0  0  0  0
    3.3354    0.5938    2.1783 H   0  0  0  0  0  0
   -1.0335   -2.6346    3.6626 H   0  0  0  0  0  0
   -1.1470   -1.4017    4.9640 H   0  0  0  0  0  0
   -0.0441   -2.8070    5.1519 H   0  0  0  0  0  0
    0.4522   -1.9607   -0.3499 H   0  0  0  0  0  0
    1.8139   -2.8330    0.4321 H   0  0  0  0  0  0
    3.3398   -2.1676   -1.3663 H   0  0  0  0  0  0
    1.8800   -2.9173   -2.0968 H   0  0  0  0  0  0
    3.6199    0.2139   -1.4246 H   0  0  0  0  0  0
    2.3702    1.2388   -2.2084 H   0  0  0  0  0  0
    2.3078    1.3149    0.3063 H   0  0  0  0  0  0
    0.7734    0.7407   -0.4305 H   0  0  0  0  0  0
    2.8170    0.0477   -4.0683 H   0  0  0  0  0  0
    3.6595   -1.4408   -3.5192 H   0  0  0  0  0  0
    1.6811   -2.7945   -4.1536 H   0  0  0  0  0  0
    0.8386   -1.3061   -4.7027 H   0  0  0  0  0  0
    1.9971   -2.4549   -6.6562 H   0  0  0  0  0  0
    3.0672    4.6756   14.5682 H   0  0  0  0  0  0
    5.3146    4.2423   15.5013 H   0  0  0  0  0  0
    6.9589    2.9171   14.2280 H   0  0  0  0  0  0
    1.5095    4.4632   12.9293 H   0  0  0  0  0  0
    1.5482    2.9089   12.0298 H   0  0  0  0  0  0
    2.1590    4.4102   11.2554 H   0  0  0  0  0  0
    4.0775    1.4615    4.3140 H   0  0  0  0  0  0
  1  5  1  0  0  0
  1  2  2  0  0  0
  1 34  1  0  0  0
  2  3  1  0  0  0
  2 23  1  0  0  0
  3  4  1  0  0  0
  4  5  2  0  0  0
  4  6  1  0  0  0
  6  7  1  0  0  0
  6 58  1  0  0  0
  7 12  2  0  0  0
  7  8  1  0  0  0
  8 35  1  0  0  0
  8  9  2  0  0  0
  9 14  1  0  0  0
  9 10  1  0  0  0
 10 11  2  0  0  0
 11 13  1  0  0  0
 11 12  1  0  0  0
 13 36  1  0  0  0
 13 37  1  0  0  0
 13 38  1  0  0  0
 14 19  1  0  0  0
 14 15  1  0  0  0
 15 16  1  0  0  0
 15 39  1  0  0  0
 15 40  1  0  0  0
 16 17  1  0  0  0
 16 41  1  0  0  0
 16 42  1  0  0  0
 17 18  1  0  0  0
 17 20  1  0  0  0
 18 19  1  0  0  0
 18 43  1  0  0  0
 18 44  1  0  0  0
 19 45  1  0  0  0
 19 46  1  0  0  0
 20 21  1  0  0  0
 20 47  1  0  0  0
 20 48  1  0  0  0
 21 22  1  0  0  0
 21 49  1  0  0  0
 21 50  1  0  0  0
 22 51  1  0  0  0
 23 24  1  0  0  0
 23 25  2  0  0  0
 25 26  1  0  0  0
 26 31  2  0  0  0
 26 27  1  0  0  0
 27 28  2  0  0  0
 27 33  1  0  0  0
 28 29  1  0  0  0
 28 52  1  0  0  0
 29 30  2  0  0  0
 29 53  1  0  0  0
 30 31  1  0  0  0
 30 54  1  0  0  0
 31 32  1  0  0  0
 33 55  1  0  0  0
 33 56  1  0  0  0
 33 57  1  0  0  0
M  CHG  1  24  -1
M  END
> <s_m_source_file>
/Users/andrea/Development/mcce-charges/epik_inhibitors/output/Dasatinib/Dasatinib-input.mol2

> <i_m_source_file_index>
1

> <r_lp_tautomer_probability>
0.999999968260001

> <r_epik_Ionization_Penalty>
  5.4699

> <r_epik_Ionization_Penalty_Charging>
  4.0899

> <r_epik_Ionization_Penalty_Neutral>
  1.3800

> <r_epik_State_Penalty>
  5.5916

> <i_epik_Tot_Q>
-1

$$$$
~{N}-(2-chloro-6-methyl-phenyl)-2-[[6-[4-(2-hydroxyethyl)piperazin-1-yl]-2-methyl-pyrimidin-4-yl]amino]thiazole-5-carboxamide
                    3D
 Structure written by MMmdl.
 61 64  0  0  1  0            999 V2000
    2.8912    1.0679    8.3232 C   0  0  0  0  0  0
    3.9723    1.9231    8.3673 C   0  0  0  0  0  0
    4.5696    2.1775    6.7799 S   0  0  0  0  0  0
    3.3449    1.1365    6.1786 C   0  0  0  0  0  0
    2.5297    0.6162    7.0690 N   0  0  0  0  0  0
    3.2682    0.8910    4.7931 N   0  0  0  0  0  0
    2.3957    0.1013    4.0050 C   0  0  0  0  0  0
    2.6090    0.0862    2.6417 C   0  0  0  0  0  0
    1.7376   -0.6943    1.9097 C   0  0  0  0  0  0
    0.7328   -1.4099    2.4558 N   0  0  0  0  0  0
    0.6283   -1.3128    3.7949 C   0  0  0  0  0  0
    1.4111   -0.5886    4.6174 N   0  3  0  0  0  0
   -0.4711   -2.0900    4.4354 C   0  0  0  0  0  0
    1.9199   -0.7366    0.5229 N   0  0  0  0  0  0
    1.5399   -1.9651   -0.1857 C   0  0  0  0  0  0
    2.2588   -2.0514   -1.5340 C   0  0  0  0  0  0
    2.0338   -0.8381   -2.3295 N   0  3  0  0  0  0
    2.5418    0.3342   -1.6066 C   0  0  0  0  0  0
    1.8331    0.5000   -0.2600 C   0  0  0  0  0  0
    2.6797   -0.9547   -3.6364 C   0  0  0  0  0  0
    1.8191   -1.7889   -4.5775 C   0  0  0  0  0  0
    2.4671   -1.8876   -5.8394 O   0  0  0  0  0  0
    4.5938    2.5606    9.4788 C   0  0  0  0  0  0
    5.5839    3.3227    9.3612 O   0  0  0  0  0  0
    4.0067    2.3209   10.7455 N   0  0  0  0  0  0
    4.3666    2.8310   12.0183 C   0  0  0  0  0  0
    3.4402    3.5814   12.7425 C   0  0  0  0  0  0
    3.7814    4.0894   13.9960 C   0  0  0  0  0  0
    5.0490    3.8469   14.5252 C   0  0  0  0  0  0
    5.9753    3.0965   13.8010 C   0  0  0  0  0  0
    5.6341    2.5886   12.5475 C   0  0  0  0  0  0
    6.8146    1.6648   11.6875 Cl  0  0  0  0  0  0
    2.0740    3.8593   12.2037 C   0  0  0  0  0  0
    2.3237    0.7373    9.1834 H   0  0  0  0  0  0
    3.3354    0.5938    2.1783 H   0  0  0  0  0  0
   -1.0335   -2.6346    3.6626 H   0  0  0  0  0  0
   -1.1470   -1.4017    4.9640 H   0  0  0  0  0  0
   -0.0441   -2.8070    5.1519 H   0  0  0  0  0  0
    0.4522   -1.9607   -0.3499 H   0  0  0  0  0  0
    1.8139   -2.8330    0.4321 H   0  0  0  0  0  0
    3.3398   -2.1676   -1.3663 H   0  0  0  0  0  0
    1.8800   -2.9173   -2.0968 H   0  0  0  0  0  0
    3.6199    0.2139   -1.4246 H   0  0  0  0  0  0
    2.3702    1.2388   -2.2084 H   0  0  0  0  0  0
    2.3078    1.3149    0.3063 H   0  0  0  0  0  0
    0.7734    0.7407   -0.4305 H   0  0  0  0  0  0
    2.8170    0.0477   -4.0683 H   0  0  0  0  0  0
    3.6595   -1.4408   -3.5192 H   0  0  0  0  0  0
    1.6811   -2.7945   -4.1536 H   0  0  0  0  0  0
    0.8386   -1.3061   -4.7027 H   0  0  0  0  0  0
    1.9971   -2.4549   -6.6562 H   0  0  0  0  0  0
    3.1391    1.6501   10.8315 H   0  0  0  0  0  0
    3.0672    4.6756   14.5682 H   0  0  0  0  0  0
    5.3146    4.2423   15.5013 H   0  0  0  0  0  0
    6.9589    2.9171   14.2280 H   0  0  0  0  0  0
    1.5095    4.4632   12.9293 H   0  0  0  0  0  0
    1.5482    2.9089   12.0298 H   0  0  0  0  0  0
    2.1590    4.4102   11.2554 H   0  0  0  0  0  0
    4.0775    1.4615    4.3140 H   0  0  0  0  0  0
    1.2216   -0.5917    5.7010 H   0  0  0  0  0  0
    0.9534   -0.7146   -2.4953 H   0  0  0  0  0  0
  1  5  1  0  0  0
  1  2  2  0  0  0
  1 34  1  0  0  0
  2  3  1  0  0  0
  2 23  1  0  0  0
  3  4  1  0  0  0
  4  5  2  0  0  0
  4  6  1  0  0  0
  6  7  1  0  0  0
  6 59  1  0  0  0
  7 12  2  0  0  0
  7  8  1  0  0  0
  8 35  1  0  0  0
  8  9  2  0  0  0
  9 14  1  0  0  0
  9 10  1  0  0  0
 10 11  2  0  0  0
 11 13  1  0  0  0
 11 12  1  0  0  0
 12 60  1  0  0  0
 13 36  1  0  0  0
 13 37  1  0  0  0
 13 38  1  0  0  0
 14 19  1  0  0  0
 14 15  1  0  0  0
 15 16  1  0  0  0
 15 39  1  0  0  0
 15 40  1  0  0  0
 16 17  1  0  0  0
 16 41  1  0  0  0
 16 42  1  0  0  0
 17 18  1  0  0  0
 17 20  1  0  0  0
 17 61  1  0  0  0
 18 19  1  0  0  0
 18 43  1  0  0  0
 18 44  1  0  0  0
 19 45  1  0  0  0
 19 46  1  0  0  0
 20 21  1  0  0  0
 20 47  1  0  0  0
 20 48  1  0  0  0
 21 22  1  0  0  0
 21 49  1  0  0  0
 21 50  1  0  0  0
 22 51  1  0  0  0
 23 24  2  0  0  0
 23 25  1  0  0  0
 25 26  1  0  0  0
 25 52  1  0  0  0
 26 31  2  0  0  0
 26 27  1  0  0  0
 27 28  2  0  0  0
 27 33  1  0  0  0
 28 29  1  0  0  0
 28 53  1  0  0  0
 29 30  2  0  0  0
 29 54  1  0  0  0
 30 31  1  0  0  0
 30 55  1  0  0  0
 31 32  1  0  0  0
 33 56  1  0  0  0
 33 57  1  0  0  0
 33 58  1  0  0  0
M  CHG  2  12   1  17   1
M  END
> <s_m_source_file>
/Users/andrea/Development/mcce-charges/epik_inhibitors/output/Dasatinib/Dasatinib-input.mol2

> <i_m_source_file_index>
1

> <r_lp_tautomer_probability>
0.000712994788381179

> <r_epik_Ionization_Penalty>
  1.6989

> <r_epik_Ionization_Penalty_Charging>
  1.6888

> <r_epik_Ionization_Penalty_Neutral>
  0.0101

> <r_epik_State_Penalty>
  5.9607

> <i_epik_Tot_Q>
2

$$$$
~{N}-(2-chloro-6-methyl-phenyl)-2-[[6-[4-(2-hydroxyethyl)piperazin-1-yl]-2-methyl-pyrimidin-4-yl]amino]thiazole-5-carboxamide
                    3D
 Structure written by MMmdl.
 59 62  0  0  1  0            999 V2000
    5.9008    2.7554    3.3004 C   0  0  0  0  0  0
    6.2579    3.2019    4.5555 C   0  0  0  0  0  0
    5.2005    2.5310    5.7272 S   0  0  0  0  0  0
    4.3683    1.7104    4.4705 C   0  0  0  0  0  0
    4.8177    1.8998    3.2498 N   0  0  0  0  0  0
    3.2682    0.8910    4.7931 N   0  3  0  0  0  0
    2.3957    0.1013    4.0050 C   0  0  0  0  0  0
    2.6090    0.0862    2.6417 C   0  0  0  0  0  0
    1.7375   -0.6941    1.9097 C   0  0  0  0  0  0
    0.7328   -1.4099    2.4558 N   0  0  0  0  0  0
    0.6285   -1.3130    3.7949 C   0  0  0  0  0  0
    1.4112   -0.5888    4.6174 N   0  0  0  0  0  0
   -0.4708   -2.0904    4.4354 C   0  0  0  0  0  0
    1.9190   -0.7355    0.5227 N   0  0  0  0  0  0
    1.5392   -1.9638   -0.1864 C   0  0  0  0  0  0
    2.2575   -2.0489   -1.5351 C   0  0  0  0  0  0
    2.0315   -0.8353   -2.3298 N   0  0  0  0  0  0
    2.5393    0.3368   -1.6064 C   0  0  0  0  0  0
    1.8312    0.5015   -0.2594 C   0  0  0  0  0  0
    2.6768   -0.9507   -3.6371 C   0  0  0  0  0  0
    1.8160   -1.7849   -4.5783 C   0  0  0  0  0  0
    2.4635   -1.8825   -5.8405 O   0  0  0  0  0  0
    7.3082    4.0774    4.9540 C   0  0  0  0  0  0
    7.5125    4.3963    6.1504 O   0  5  0  0  0  0
    8.1534    4.5507    3.9204 N   0  0  0  0  0  0
    9.2898    5.3947    3.9991 C   0  0  0  0  0  0
   10.5250    4.9239    3.5539 C   0  0  0  0  0  0
   11.6511    5.7438    3.6257 C   0  0  0  0  0  0
   11.5420    7.0347    4.1429 C   0  0  0  0  0  0
   10.3067    7.5056    4.5881 C   0  0  0  0  0  0
    9.1806    6.6855    4.5162 C   0  0  0  0  0  0
    7.6720    7.3123    5.0798 Cl  0  0  0  0  0  0
   10.6757    3.5459    2.9948 C   0  0  0  0  0  0
    6.4175    3.0537    2.4979 H   0  0  0  0  0  0
    3.3356    0.5936    2.1784 H   0  0  0  0  0  0
   -0.4491   -1.9282    5.5232 H   0  0  0  0  0  0
   -0.3356   -3.1609    4.2216 H   0  0  0  0  0  0
   -1.4387   -1.7557    4.0340 H   0  0  0  0  0  0
    0.4515   -1.9598   -0.3500 H   0  0  0  0  0  0
    1.8140   -2.8319    0.4308 H   0  0  0  0  0  0
    3.3386   -2.1646   -1.3680 H   0  0  0  0  0  0
    1.8788   -2.9146   -2.0982 H   0  0  0  0  0  0
    3.6176    0.2170   -1.4251 H   0  0  0  0  0  0
    2.3669    1.2418   -2.2076 H   0  0  0  0  0  0
    2.3058    1.3163    0.3071 H   0  0  0  0  0  0
    0.7713    0.7418   -0.4292 H   0  0  0  0  0  0
    2.8134    0.0519   -4.0684 H   0  0  0  0  0  0
    3.6568   -1.4364   -3.5207 H   0  0  0  0  0  0
    1.6788   -2.7908   -4.1549 H   0  0  0  0  0  0
    0.8353   -1.3025   -4.7026 H   0  0  0  0  0  0
    1.9933   -2.4496   -6.6574 H   0  0  0  0  0  0
   12.6182    5.3865    3.2820 H   0  0  0  0  0  0
   12.4187    7.6732    4.1987 H   0  0  0  0  0  0
   10.2392    8.5140    4.9885 H   0  0  0  0  0  0
   11.7241    3.3800    2.7063 H   0  0  0  0  0  0
   10.0303    3.4363    2.1108 H   0  0  0  0  0  0
   10.3835    2.8074    3.7560 H   0  0  0  0  0  0
    3.1366    0.9338    5.8844 H   0  0  0  0  0  0
    0.0271   -2.0389    1.8933 H   0  0  0  0  0  0
  1  5  1  0  0  0
  1  2  2  0  0  0
  1 34  1  0  0  0
  2  3  1  0  0  0
  2 23  1  0  0  0
  3  4  1  0  0  0
  4  5  2  0  0  0
  4  6  1  0  0  0
  6  7  2  0  0  0
  6 58  1  0  0  0
  7  8  1  0  0  0
  7 12  1  0  0  0
  8  9  2  0  0  0
  8 35  1  0  0  0
  9 10  1  0  0  0
  9 14  1  0  0  0
 10 11  1  0  0  0
 10 59  1  0  0  0
 11 13  1  0  0  0
 11 12  2  0  0  0
 13 36  1  0  0  0
 13 37  1  0  0  0
 13 38  1  0  0  0
 14 19  1  0  0  0
 14 15  1  0  0  0
 15 16  1  0  0  0
 15 39  1  0  0  0
 15 40  1  0  0  0
 16 17  1  0  0  0
 16 41  1  0  0  0
 16 42  1  0  0  0
 17 18  1  0  0  0
 17 20  1  0  0  0
 18 19  1  0  0  0
 18 43  1  0  0  0
 18 44  1  0  0  0
 19 45  1  0  0  0
 19 46  1  0  0  0
 20 21  1  0  0  0
 20 47  1  0  0  0
 20 48  1  0  0  0
 21 22  1  0  0  0
 21 49  1  0  0  0
 21 50  1  0  0  0
 22 51  1  0  0  0
 23 24  1  0  0  0
 23 25  2  0  0  0
 25 26  1  0  0  0
 26 31  2  0  0  0
 26 27  1  0  0  0
 27 28  2  0  0  0
 27 33  1  0  0  0
 28 29  1  0  0  0
 28 52  1  0  0  0
 29 30  2  0  0  0
 29 53  1  0  0  0
 30 31  1  0  0  0
 30 54  1  0  0  0
 31 32  1  0  0  0
 33 55  1  0  0  0
 33 56  1  0  0  0
 33 57  1  0  0  0
M  CHG  2   6   1  24  -1
M  END
> <s_m_source_file>
/Users/andrea/Development/mcce-charges/epik_inhibitors/output/Dasatinib/Dasatinib-input.mol2

> <i_m_source_file_index>
1

> <r_epik_Ionization_Penalty>
  4.8374

> <r_epik_Ionization_Penalty_Charging>
  4.0899

> <r_epik_Ionization_Penalty_Neutral>
  0.7475

> <r_epik_State_Penalty>
  6.6786

> <i_epik_Tot_Q>
0

> <s_epik_Chemistry_Notes>
This compound has an imine and may undergo hydrolysis.

$$$$
~{N}-(2-chloro-6-methyl-phenyl)-2-[[6-[4-(2-hydroxyethyl)piperazin-1-yl]-2-methyl-pyrimidin-4-yl]amino]thiazole-5-carboxamide
                    3D
 Structure written by MMmdl.
 59 62  0  0  1  0            999 V2000
    2.8912    1.0679    8.3232 C   0  0  0  0  0  0
    3.9723    1.9231    8.3673 C   0  0  0  0  0  0
    4.5696    2.1775    6.7799 S   0  0  0  0  0  0
    3.3449    1.1365    6.1786 C   0  0  0  0  0  0
    2.5297    0.6162    7.0690 N   0  0  0  0  0  0
    3.2682    0.8910    4.7931 N   0  3  0  0  0  0
    2.3957    0.1013    4.0050 C   0  0  0  0  0  0
    2.6090    0.0862    2.6417 C   0  0  0  0  0  0
    1.7375   -0.6941    1.9097 C   0  0  0  0  0  0
    0.7328   -1.4099    2.4558 N   0  0  0  0  0  0
    0.6285   -1.3130    3.7949 C   0  0  0  0  0  0
    1.4112   -0.5888    4.6174 N   0  0  0  0  0  0
   -0.4708   -2.0904    4.4354 C   0  0  0  0  0  0
    1.9190   -0.7355    0.5227 N   0  0  0  0  0  0
    1.5392   -1.9638   -0.1864 C   0  0  0  0  0  0
    2.2575   -2.0489   -1.5351 C   0  0  0  0  0  0
    2.0315   -0.8353   -2.3298 N   0  0  0  0  0  0
    2.5393    0.3368   -1.6064 C   0  0  0  0  0  0
    1.8312    0.5015   -0.2594 C   0  0  0  0  0  0
    2.6768   -0.9507   -3.6371 C   0  0  0  0  0  0
    1.8160   -1.7849   -4.5783 C   0  0  0  0  0  0
    2.4635   -1.8825   -5.8405 O   0  0  0  0  0  0
    4.5938    2.5606    9.4788 C   0  0  0  0  0  0
    5.5839    3.3227    9.3612 O   0  5  0  0  0  0
    4.0067    2.3209   10.7455 N   0  0  0  0  0  0
    4.3666    2.8310   12.0183 C   0  0  0  0  0  0
    3.4402    3.5814   12.7425 C   0  0  0  0  0  0
    3.7814    4.0894   13.9960 C   0  0  0  0  0  0
    5.0490    3.8469   14.5252 C   0  0  0  0  0  0
    5.9753    3.0965   13.8010 C   0  0  0  0  0  0
    5.6341    2.5886   12.5475 C   0  0  0  0  0  0
    6.8146    1.6648   11.6875 Cl  0  0  0  0  0  0
    2.0740    3.8593   12.2037 C   0  0  0  0  0  0
    2.4214    0.8120    9.1681 H   0  0  0  0  0  0
    3.3356    0.5936    2.1784 H   0  0  0  0  0  0
   -0.4491   -1.9282    5.5232 H   0  0  0  0  0  0
   -0.3356   -3.1609    4.2216 H   0  0  0  0  0  0
   -1.4387   -1.7557    4.0340 H   0  0  0  0  0  0
    0.4515   -1.9598   -0.3500 H   0  0  0  0  0  0
    1.8140   -2.8319    0.4308 H   0  0  0  0  0  0
    3.3386   -2.1646   -1.3680 H   0  0  0  0  0  0
    1.8788   -2.9146   -2.0982 H   0  0  0  0  0  0
    3.6176    0.2170   -1.4251 H   0  0  0  0  0  0
    2.3669    1.2418   -2.2076 H   0  0  0  0  0  0
    2.3058    1.3163    0.3071 H   0  0  0  0  0  0
    0.7713    0.7418   -0.4292 H   0  0  0  0  0  0
    2.8134    0.0519   -4.0684 H   0  0  0  0  0  0
    3.6568   -1.4364   -3.5207 H   0  0  0  0  0  0
    1.6788   -2.7908   -4.1549 H   0  0  0  0  0  0
    0.8353   -1.3025   -4.7026 H   0  0  0  0  0  0
    1.9933   -2.4496   -6.6574 H   0  0  0  0  0  0
    3.0672    4.6756   14.5682 H   0  0  0  0  0  0
    5.3146    4.2423   15.5013 H   0  0  0  0  0  0
    6.9589    2.9171   14.2280 H   0  0  0  0  0  0
    1.5095    4.4632   12.9293 H   0  0  0  0  0  0
    1.5482    2.9089   12.0298 H   0  0  0  0  0  0
    2.1590    4.4102   11.2554 H   0  0  0  0  0  0
    4.0775    1.4615    4.3140 H   0  0  0  0  0  0
    0.0271   -2.0389    1.8933 H   0  0  0  0  0  0
  1  5  1  0  0  0
  1  2  2  0  0  0
  1 34  1  0  0  0
  2  3  1  0  0  0
  2 23  1  0  0  0
  3  4  1  0  0  0
  4  5  2  0  0  0
  4  6  1  0  0  0
  6  7  2  0  0  0
  6 58  1  0  0  0
  7  8  1  0  0  0
  7 12  1  0  0  0
  8  9  2  0  0  0
  8 35  1  0  0  0
  9 10  1  0  0  0
  9 14  1  0  0  0
 10 11  1  0  0  0
 10 59  1  0  0  0
 11 13  1  0  0  0
 11 12  2  0  0  0
 13 36  1  0  0  0
 13 37  1  0  0  0
 13 38  1  0  0  0
 14 19  1  0  0  0
 14 15  1  0  0  0
 15 16  1  0  0  0
 15 39  1  0  0  0
 15 40  1  0  0  0
 16 17  1  0  0  0
 16 41  1  0  0  0
 16 42  1  0  0  0
 17 18  1  0  0  0
 17 20  1  0  0  0
 18 19  1  0  0  0
 18 43  1  0  0  0
 18 44  1  0  0  0
 19 45  1  0  0  0
 19 46  1  0  0  0
 20 21  1  0  0  0
 20 47  1  0  0  0
 20 48  1  0  0  0
 21 22  1  0  0  0
 21 49  1  0  0  0
 21 50  1  0  0  0
 22 51  1  0  0  0
 23 24  1  0  0  0
 23 25  2  0  0  0
 25 26  1  0  0  0
 26 31  2  0  0  0
 26 27  1  0  0  0
 27 28  2  0  0  0
 27 33  1  0  0  0
 28 29  1  0  0  0
 28 52  1  0  0  0
 29 30  2  0  0  0
 29 53  1  0  0  0
 30 31  1  0  0  0
 30 54  1  0  0  0
 31 32  1  0  0  0
 33 55  1  0  0  0
 33 56  1  0  0  0
 33 57  1  0  0  0
M  CHG  2   6   1  24  -1
M  END
> <s_m_source_file>
/Users/andrea/Development/mcce-charges/epik_inhibitors/output/Dasatinib/Dasatinib-input.mol2

> <i_m_source_file_index>
1

> <r_epik_Ionization_Penalty>
  4.8374

> <r_epik_Ionization_Penalty_Charging>
  4.0899

> <r_epik_Ionization_Penalty_Neutral>
  0.7475

> <r_epik_State_Penalty>
  6.6786

> <i_epik_Tot_Q>
0

> <s_epik_Chemistry_Notes>
This compound has an imine and may undergo hydrolysis.

$$$$
~{N}-(2-chloro-6-methyl-phenyl)-2-[[6-[4-(2-hydroxyethyl)piperazin-1-yl]-2-methyl-pyrimidin-4-yl]amino]thiazole-5-carboxamide
                    3D
 Structure written by MMmdl.
 61 64  0  0  1  0            999 V2000
    2.8912    1.0679    8.3232 C   0  0  0  0  0  0
    3.9723    1.9231    8.3673 C   0  0  0  0  0  0
    4.5696    2.1775    6.7799 S   0  0  0  0  0  0
    3.3449    1.1365    6.1786 C   0  0  0  0  0  0
    2.5297    0.6162    7.0690 N   0  3  0  0  0  0
    3.2682    0.8910    4.7931 N   0  0  0  0  0  0
    2.3957    0.1013    4.0050 C   0  0  0  0  0  0
    2.6090    0.0862    2.6417 C   0  0  0  0  0  0
    1.7376   -0.6943    1.9097 C   0  0  0  0  0  0
    0.7328   -1.4099    2.4558 N   0  0  0  0  0  0
    0.6283   -1.3128    3.7949 C   0  0  0  0  0  0
    1.4111   -0.5886    4.6174 N   0  0  0  0  0  0
   -0.4711   -2.0900    4.4354 C   0  0  0  0  0  0
    1.9199   -0.7366    0.5229 N   0  0  0  0  0  0
    1.5399   -1.9651   -0.1857 C   0  0  0  0  0  0
    2.2588   -2.0514   -1.5340 C   0  0  0  0  0  0
    2.0338   -0.8381   -2.3295 N   0  3  0  0  0  0
    2.5418    0.3342   -1.6066 C   0  0  0  0  0  0
    1.8331    0.5000   -0.2600 C   0  0  0  0  0  0
    2.6797   -0.9547   -3.6364 C   0  0  0  0  0  0
    1.8191   -1.7889   -4.5775 C   0  0  0  0  0  0
    2.4671   -1.8876   -5.8394 O   0  0  0  0  0  0
    4.5938    2.5606    9.4788 C   0  0  0  0  0  0
    5.5839    3.3227    9.3612 O   0  0  0  0  0  0
    4.0067    2.3209   10.7455 N   0  0  0  0  0  0
    4.3666    2.8310   12.0183 C   0  0  0  0  0  0
    3.4402    3.5814   12.7425 C   0  0  0  0  0  0
    3.7814    4.0894   13.9960 C   0  0  0  0  0  0
    5.0490    3.8469   14.5252 C   0  0  0  0  0  0
    5.9753    3.0965   13.8010 C   0  0  0  0  0  0
    5.6341    2.5886   12.5475 C   0  0  0  0  0  0
    6.8146    1.6648   11.6875 Cl  0  0  0  0  0  0
    2.0740    3.8593   12.2037 C   0  0  0  0  0  0
    2.3237    0.7373    9.1834 H   0  0  0  0  0  0
    3.3354    0.5938    2.1783 H   0  0  0  0  0  0
   -1.0335   -2.6346    3.6626 H   0  0  0  0  0  0
   -1.1470   -1.4017    4.9640 H   0  0  0  0  0  0
   -0.0441   -2.8070    5.1519 H   0  0  0  0  0  0
    0.4522   -1.9607   -0.3499 H   0  0  0  0  0  0
    1.8139   -2.8330    0.4321 H   0  0  0  0  0  0
    3.3398   -2.1676   -1.3663 H   0  0  0  0  0  0
    1.8800   -2.9173   -2.0968 H   0  0  0  0  0  0
    3.6199    0.2139   -1.4246 H   0  0  0  0  0  0
    2.3702    1.2388   -2.2084 H   0  0  0  0  0  0
    2.3078    1.3149    0.3063 H   0  0  0  0  0  0
    0.7734    0.7407   -0.4305 H   0  0  0  0  0  0
    2.8170    0.0477   -4.0683 H   0  0  0  0  0  0
    3.6595   -1.4408   -3.5192 H   0  0  0  0  0  0
    1.6811   -2.7945   -4.1536 H   0  0  0  0  0  0
    0.8386   -1.3061   -4.7027 H   0  0  0  0  0  0
    1.9971   -2.4549   -6.6562 H   0  0  0  0  0  0
    3.1391    1.6501   10.8315 H   0  0  0  0  0  0
    3.0672    4.6756   14.5682 H   0  0  0  0  0  0
    5.3146    4.2423   15.5013 H   0  0  0  0  0  0
    6.9589    2.9171   14.2280 H   0  0  0  0  0  0
    1.5095    4.4632   12.9293 H   0  0  0  0  0  0
    1.5482    2.9089   12.0298 H   0  0  0  0  0  0
    2.1590    4.4102   11.2554 H   0  0  0  0  0  0
    4.0775    1.4615    4.3140 H   0  0  0  0  0  0
    1.6763   -0.0686    6.9559 H   0  0  0  0  0  0
    0.9534   -0.7146   -2.4953 H   0  0  0  0  0  0
  1  5  1  0  0  0
  1  2  2  0  0  0
  1 34  1  0  0  0
  2  3  1  0  0  0
  2 23  1  0  0  0
  3  4  1  0  0  0
  4  5  2  0  0  0
  4  6  1  0  0  0
  5 60  1  0  0  0
  6  7  1  0  0  0
  6 59  1  0  0  0
  7 12  2  0  0  0
  7  8  1  0  0  0
  8 35  1  0  0  0
  8  9  2  0  0  0
  9 14  1  0  0  0
  9 10  1  0  0  0
 10 11  2  0  0  0
 11 13  1  0  0  0
 11 12  1  0  0  0
 13 36  1  0  0  0
 13 37  1  0  0  0
 13 38  1  0  0  0
 14 19  1  0  0  0
 14 15  1  0  0  0
 15 16  1  0  0  0
 15 39  1  0  0  0
 15 40  1  0  0  0
 16 17  1  0  0  0
 16 41  1  0  0  0
 16 42  1  0  0  0
 17 18  1  0  0  0
 17 20  1  0  0  0
 17 61  1  0  0  0
 18 19  1  0  0  0
 18 43  1  0  0  0
 18 44  1  0  0  0
 19 45  1  0  0  0
 19 46  1  0  0  0
 20 21  1  0  0  0
 20 47  1  0  0  0
 20 48  1  0  0  0
 21 22  1  0  0  0
 21 49  1  0  0  0
 21 50  1  0  0  0
 22 51  1  0  0  0
 23 24  2  0  0  0
 23 25  1  0  0  0
 25 26  1  0  0  0
 25 52  1  0  0  0
 26 31  2  0  0  0
 26 27  1  0  0  0
 27 28  2  0  0  0
 27 33  1  0  0  0
 28 29  1  0  0  0
 28 53  1  0  0  0
 29 30  2  0  0  0
 29 54  1  0  0  0
 30 31  1  0  0  0
 30 55  1  0  0  0
 31 32  1  0  0  0
 33 56  1  0  0  0
 33 57  1  0  0  0
 33 58  1  0  0  0
M  CHG  2   5   1  17   1
M  END
> <s_m_source_file>
/Users/andrea/Development/mcce-charges/epik_inhibitors/output/Dasatinib/Dasatinib-input.mol2

> <i_m_source_file_index>
1

> <r_epik_Ionization_Penalty>
  7.8509

> <r_epik_Ionization_Penalty_Charging>
  7.7596

> <r_epik_Ionization_Penalty_Neutral>
  0.0913

> <r_epik_State_Penalty>
  6.7627

> <i_epik_Tot_Q>
2

$$$$
~{N}-(2-chloro-6-methyl-phenyl)-2-[[6-[4-(2-hydroxyethyl)piperazin-1-yl]-2-methyl-pyrimidin-4-yl]amino]thiazole-5-carboxamide
                    3D
 Structure written by MMmdl.
 59 62  0  0  1  0            999 V2000
    2.8912    1.0679    8.3232 C   0  0  0  0  0  0
    3.9723    1.9231    8.3673 C   0  0  0  0  0  0
    4.5696    2.1775    6.7799 S   0  0  0  0  0  0
    3.3449    1.1365    6.1786 C   0  0  0  0  0  0
    2.5297    0.6162    7.0690 N   0  0  0  0  0  0
    3.2682    0.8910    4.7931 N   0  0  0  0  0  0
    2.3957    0.1013    4.0050 C   0  0  0  0  0  0
    2.6090    0.0862    2.6417 C   0  0  0  0  0  0
    1.7376   -0.6943    1.9097 C   0  0  0  0  0  0
    0.7328   -1.4099    2.4558 N   0  0  0  0  0  0
    0.6283   -1.3128    3.7949 C   0  0  0  0  0  0
    1.4111   -0.5886    4.6174 N   0  3  0  0  0  0
   -0.4711   -2.0900    4.4354 C   0  0  0  0  0  0
    1.9199   -0.7366    0.5229 N   0  0  0  0  0  0
    1.5399   -1.9651   -0.1857 C   0  0  0  0  0  0
    2.2588   -2.0514   -1.5340 C   0  0  0  0  0  0
    2.0338   -0.8381   -2.3295 N   0  0  0  0  0  0
    2.5418    0.3342   -1.6066 C   0  0  0  0  0  0
    1.8331    0.5000   -0.2600 C   0  0  0  0  0  0
    2.6797   -0.9547   -3.6364 C   0  0  0  0  0  0
    1.8191   -1.7889   -4.5775 C   0  0  0  0  0  0
    2.4671   -1.8876   -5.8394 O   0  0  0  0  0  0
    4.5938    2.5606    9.4788 C   0  0  0  0  0  0
    5.5839    3.3227    9.3612 O   0  5  0  0  0  0
    4.0067    2.3209   10.7455 N   0  0  0  0  0  0
    4.3666    2.8310   12.0183 C   0  0  0  0  0  0
    3.4402    3.5814   12.7425 C   0  0  0  0  0  0
    3.7814    4.0894   13.9960 C   0  0  0  0  0  0
    5.0490    3.8469   14.5252 C   0  0  0  0  0  0
    5.9753    3.0965   13.8010 C   0  0  0  0  0  0
    5.6341    2.5886   12.5475 C   0  0  0  0  0  0
    6.8146    1.6648   11.6875 Cl  0  0  0  0  0  0
    2.0740    3.8593   12.2037 C   0  0  0  0  0  0
    2.3237    0.7373    9.1834 H   0  0  0  0  0  0
    3.3354    0.5938    2.1783 H   0  0  0  0  0  0
   -1.0335   -2.6346    3.6626 H   0  0  0  0  0  0
   -1.1470   -1.4017    4.9640 H   0  0  0  0  0  0
   -0.0441   -2.8070    5.1519 H   0  0  0  0  0  0
    0.4522   -1.9607   -0.3499 H   0  0  0  0  0  0
    1.8139   -2.8330    0.4321 H   0  0  0  0  0  0
    3.3398   -2.1676   -1.3663 H   0  0  0  0  0  0
    1.8800   -2.9173   -2.0968 H   0  0  0  0  0  0
    3.6199    0.2139   -1.4246 H   0  0  0  0  0  0
    2.3702    1.2388   -2.2084 H   0  0  0  0  0  0
    2.3078    1.3149    0.3063 H   0  0  0  0  0  0
    0.7734    0.7407   -0.4305 H   0  0  0  0  0  0
    2.8170    0.0477   -4.0683 H   0  0  0  0  0  0
    3.6595   -1.4408   -3.5192 H   0  0  0  0  0  0
    1.6811   -2.7945   -4.1536 H   0  0  0  0  0  0
    0.8386   -1.3061   -4.7027 H   0  0  0  0  0  0
    1.9971   -2.4549   -6.6562 H   0  0  0  0  0  0
    3.0672    4.6756   14.5682 H   0  0  0  0  0  0
    5.3146    4.2423   15.5013 H   0  0  0  0  0  0
    6.9589    2.9171   14.2280 H   0  0  0  0  0  0
    1.5095    4.4632   12.9293 H   0  0  0  0  0  0
    1.5482    2.9089   12.0298 H   0  0  0  0  0  0
    2.1590    4.4102   11.2554 H   0  0  0  0  0  0
    4.0775    1.4615    4.3140 H   0  0  0  0  0  0
    1.2216   -0.5917    5.7010 H   0  0  0  0  0  0
  1  5  1  0  0  0
  1  2  2  0  0  0
  1 34  1  0  0  0
  2  3  1  0  0  0
  2 23  1  0  0  0
  3  4  1  0  0  0
  4  5  2  0  0  0
  4  6  1  0  0  0
  6  7  1  0  0  0
  6 58  1  0  0  0
  7 12  2  0  0  0
  7  8  1  0  0  0
  8 35  1  0  0  0
  8  9  2  0  0  0
  9 14  1  0  0  0
  9 10  1  0  0  0
 10 11  2  0  0  0
 11 13  1  0  0  0
 11 12  1  0  0  0
 12 59  1  0  0  0
 13 36  1  0  0  0
 13 37  1  0  0  0
 13 38  1  0  0  0
 14 19  1  0  0  0
 14 15  1  0  0  0
 15 16  1  0  0  0
 15 39  1  0  0  0
 15 40  1  0  0  0
 16 17  1  0  0  0
 16 41  1  0  0  0
 16 42  1  0  0  0
 17 18  1  0  0  0
 17 20  1  0  0  0
 18 19  1  0  0  0
 18 43  1  0  0  0
 18 44  1  0  0  0
 19 45  1  0  0  0
 19 46  1  0  0  0
 20 21  1  0  0  0
 20 47  1  0  0  0
 20 48  1  0  0  0
 21 22  1  0  0  0
 21 49  1  0  0  0
 21 50  1  0  0  0
 22 51  1  0  0  0
 23 24  1  0  0  0
 23 25  2  0  0  0
 25 26  1  0  0  0
 26 31  2  0  0  0
 26 27  1  0  0  0
 27 28  2  0  0  0
 27 33  1  0  0  0
 28 29  1  0  0  0
 28 52  1  0  0  0
 29 30  2  0  0  0
 29 53  1  0  0  0
 30 31  1  0  0  0
 30 54  1  0  0  0
 31 32  1  0  0  0
 33 55  1  0  0  0
 33 56  1  0  0  0
 33 57  1  0  0  0
M  CHG  2  12   1  24  -1
M  END
> <s_m_source_file>
/Users/andrea/Development/mcce-charges/epik_inhibitors/output/Dasatinib/Dasatinib-input.mol2

> <i_m_source_file_index>
1

> <r_epik_Ionization_Penalty>
  4.3782

> <r_epik_Ionization_Penalty_Charging>
  4.1780

> <r_epik_Ionization_Penalty_Neutral>
  0.2003

> <r_epik_State_Penalty>
  6.7819

> <i_epik_Tot_Q>
0

$$$$
~{N}-(2-chloro-6-methyl-phenyl)-2-[[6-[4-(2-hydroxyethyl)piperazin-1-yl]-2-methyl-pyrimidin-4-yl]amino]thiazole-5-carboxamide
                    3D
 Structure written by MMmdl.
 59 62  0  0  1  0            999 V2000
    2.8912    1.0679    8.3232 C   0  0  0  0  0  0
    3.9723    1.9231    8.3673 C   0  0  0  0  0  0
    4.5696    2.1775    6.7799 S   0  0  0  0  0  0
    3.3449    1.1365    6.1786 C   0  0  0  0  0  0
    2.5297    0.6162    7.0690 N   0  0  0  0  0  0
    3.2682    0.8910    4.7931 N   0  0  0  0  0  0
    2.3957    0.1013    4.0050 C   0  0  0  0  0  0
    2.6090    0.0862    2.6417 C   0  0  0  0  0  0
    1.7376   -0.6943    1.9097 C   0  0  0  0  0  0
    0.7328   -1.4099    2.4558 N   0  3  0  0  0  0
    0.6283   -1.3128    3.7949 C   0  0  0  0  0  0
    1.4111   -0.5886    4.6174 N   0  0  0  0  0  0
   -0.4711   -2.0900    4.4354 C   0  0  0  0  0  0
    1.9199   -0.7366    0.5229 N   0  0  0  0  0  0
    1.5399   -1.9651   -0.1857 C   0  0  0  0  0  0
    2.2588   -2.0514   -1.5340 C   0  0  0  0  0  0
    2.0338   -0.8381   -2.3295 N   0  0  0  0  0  0
    2.5418    0.3342   -1.6066 C   0  0  0  0  0  0
    1.8331    0.5000   -0.2600 C   0  0  0  0  0  0
    2.6797   -0.9547   -3.6364 C   0  0  0  0  0  0
    1.8191   -1.7889   -4.5775 C   0  0  0  0  0  0
    2.4671   -1.8876   -5.8394 O   0  0  0  0  0  0
    4.5938    2.5606    9.4788 C   0  0  0  0  0  0
    5.5839    3.3227    9.3612 O   0  5  0  0  0  0
    4.0067    2.3209   10.7455 N   0  0  0  0  0  0
    4.3666    2.8310   12.0183 C   0  0  0  0  0  0
    3.4402    3.5814   12.7425 C   0  0  0  0  0  0
    3.7814    4.0894   13.9960 C   0  0  0  0  0  0
    5.0490    3.8469   14.5252 C   0  0  0  0  0  0
    5.9753    3.0965   13.8010 C   0  0  0  0  0  0
    5.6341    2.5886   12.5475 C   0  0  0  0  0  0
    6.8146    1.6648   11.6875 Cl  0  0  0  0  0  0
    2.0740    3.8593   12.2037 C   0  0  0  0  0  0
    2.3237    0.7373    9.1834 H   0  0  0  0  0  0
    3.3354    0.5938    2.1783 H   0  0  0  0  0  0
   -1.0335   -2.6346    3.6626 H   0  0  0  0  0  0
   -1.1470   -1.4017    4.9640 H   0  0  0  0  0  0
   -0.0441   -2.8070    5.1519 H   0  0  0  0  0  0
    0.4522   -1.9607   -0.3499 H   0  0  0  0  0  0
    1.8139   -2.8330    0.4321 H   0  0  0  0  0  0
    3.3398   -2.1676   -1.3663 H   0  0  0  0  0  0
    1.8800   -2.9173   -2.0968 H   0  0  0  0  0  0
    3.6199    0.2139   -1.4246 H   0  0  0  0  0  0
    2.3702    1.2388   -2.2084 H   0  0  0  0  0  0
    2.3078    1.3149    0.3063 H   0  0  0  0  0  0
    0.7734    0.7407   -0.4305 H   0  0  0  0  0  0
    2.8170    0.0477   -4.0683 H   0  0  0  0  0  0
    3.6595   -1.4408   -3.5192 H   0  0  0  0  0  0
    1.6811   -2.7945   -4.1536 H   0  0  0  0  0  0
    0.8386   -1.3061   -4.7027 H   0  0  0  0  0  0
    1.9971   -2.4549   -6.6562 H   0  0  0  0  0  0
    3.0672    4.6756   14.5682 H   0  0  0  0  0  0
    5.3146    4.2423   15.5013 H   0  0  0  0  0  0
    6.9589    2.9171   14.2280 H   0  0  0  0  0  0
    1.5095    4.4632   12.9293 H   0  0  0  0  0  0
    1.5482    2.9089   12.0298 H   0  0  0  0  0  0
    2.1590    4.4102   11.2554 H   0  0  0  0  0  0
    4.0775    1.4615    4.3140 H   0  0  0  0  0  0
    0.0743   -2.0126    1.8130 H   0  0  0  0  0  0
  1  5  1  0  0  0
  1  2  2  0  0  0
  1 34  1  0  0  0
  2  3  1  0  0  0
  2 23  1  0  0  0
  3  4  1  0  0  0
  4  5  2  0  0  0
  4  6  1  0  0  0
  6  7  1  0  0  0
  6 58  1  0  0  0
  7 12  2  0  0  0
  7  8  1  0  0  0
  8 35  1  0  0  0
  8  9  2  0  0  0
  9 14  1  0  0  0
  9 10  1  0  0  0
 10 11  2  0  0  0
 10 59  1  0  0  0
 11 13  1  0  0  0
 11 12  1  0  0  0
 13 36  1  0  0  0
 13 37  1  0  0  0
 13 38  1  0  0  0
 14 19  1  0  0  0
 14 15  1  0  0  0
 15 16  1  0  0  0
 15 39  1  0  0  0
 15 40  1  0  0  0
 16 17  1  0  0  0
 16 41  1  0  0  0
 16 42  1  0  0  0
 17 18  1  0  0  0
 17 20  1  0  0  0
 18 19  1  0  0  0
 18 43  1  0  0  0
 18 44  1  0  0  0
 19 45  1  0  0  0
 19 46  1  0  0  0
 20 21  1  0  0  0
 20 47  1  0  0  0
 20 48  1  0  0  0
 21 22  1  0  0  0
 21 49  1  0  0  0
 21 50  1  0  0  0
 22 51  1  0  0  0
 23 24  1  0  0  0
 23 25  2  0  0  0
 25 26  1  0  0  0
 26 31  2  0  0  0
 26 27  1  0  0  0
 27 28  2  0  0  0
 27 33  1  0  0  0
 28 29  1  0  0  0
 28 52  1  0  0  0
 29 30  2  0  0  0
 29 53  1  0  0  0
 30 31  1  0  0  0
 30 54  1  0  0  0
 31 32  1  0  0  0
 33 55  1  0  0  0
 33 56  1  0  0  0
 33 57  1  0  0  0
M  CHG  2  10   1  24  -1
M  END
> <s_m_source_file>
/Users/andrea/Development/mcce-charges/epik_inhibitors/output/Dasatinib/Dasatinib-input.mol2

> <i_m_source_file_index>
1

> <r_epik_Ionization_Penalty>
  6.6106

> <r_epik_Ionization_Penalty_Charging>
  6.4152

> <r_epik_Ionization_Penalty_Neutral>
  0.1954

> <r_epik_State_Penalty>
  7.1444

> <i_epik_Tot_Q>
0

$$$$
~{N}-(2-chloro-6-methyl-phenyl)-2-[[6-[4-(2-hydroxyethyl)piperazin-1-yl]-2-methyl-pyrimidin-4-yl]amino]thiazole-5-carboxamide
                    3D
 Structure written by MMmdl.
 60 63  0  0  1  0            999 V2000
    2.8912    1.0679    8.3232 C   0  0  0  0  0  0
    3.9723    1.9231    8.3673 C   0  0  0  0  0  0
    4.5696    2.1775    6.7799 S   0  0  0  0  0  0
    3.3449    1.1365    6.1786 C   0  0  0  0  0  0
    2.5297    0.6162    7.0690 N   0  3  0  0  0  0
    3.2682    0.8910    4.7931 N   0  0  0  0  0  0
    2.3957    0.1013    4.0050 C   0  0  0  0  0  0
    2.6090    0.0862    2.6417 C   0  0  0  0  0  0
    1.7376   -0.6943    1.9097 C   0  0  0  0  0  0
    0.7328   -1.4099    2.4558 N   0  0  0  0  0  0
    0.6283   -1.3128    3.7949 C   0  0  0  0  0  0
    1.4111   -0.5886    4.6174 N   0  0  0  0  0  0
   -0.4711   -2.0900    4.4354 C   0  0  0  0  0  0
    1.9199   -0.7366    0.5229 N   0  0  0  0  0  0
    1.5399   -1.9651   -0.1857 C   0  0  0  0  0  0
    2.2588   -2.0514   -1.5340 C   0  0  0  0  0  0
    2.0338   -0.8381   -2.3295 N   0  0  0  0  0  0
    2.5418    0.3342   -1.6066 C   0  0  0  0  0  0
    1.8331    0.5000   -0.2600 C   0  0  0  0  0  0
    2.6797   -0.9547   -3.6364 C   0  0  0  0  0  0
    1.8191   -1.7889   -4.5775 C   0  0  0  0  0  0
    2.4671   -1.8876   -5.8394 O   0  0  0  0  0  0
    4.5938    2.5606    9.4788 C   0  0  0  0  0  0
    5.5839    3.3227    9.3612 O   0  0  0  0  0  0
    4.0067    2.3209   10.7455 N   0  0  0  0  0  0
    4.3666    2.8310   12.0183 C   0  0  0  0  0  0
    3.4402    3.5814   12.7425 C   0  0  0  0  0  0
    3.7814    4.0894   13.9960 C   0  0  0  0  0  0
    5.0490    3.8469   14.5252 C   0  0  0  0  0  0
    5.9753    3.0965   13.8010 C   0  0  0  0  0  0
    5.6341    2.5886   12.5475 C   0  0  0  0  0  0
    6.8146    1.6648   11.6875 Cl  0  0  0  0  0  0
    2.0740    3.8593   12.2037 C   0  0  0  0  0  0
    2.3237    0.7373    9.1834 H   0  0  0  0  0  0
    3.3354    0.5938    2.1783 H   0  0  0  0  0  0
   -1.0335   -2.6346    3.6626 H   0  0  0  0  0  0
   -1.1470   -1.4017    4.9640 H   0  0  0  0  0  0
   -0.0441   -2.8070    5.1519 H   0  0  0  0  0  0
    0.4522   -1.9607   -0.3499 H   0  0  0  0  0  0
    1.8139   -2.8330    0.4321 H   0  0  0  0  0  0
    3.3398   -2.1676   -1.3663 H   0  0  0  0  0  0
    1.8800   -2.9173   -2.0968 H   0  0  0  0  0  0
    3.6199    0.2139   -1.4246 H   0  0  0  0  0  0
    2.3702    1.2388   -2.2084 H   0  0  0  0  0  0
    2.3078    1.3149    0.3063 H   0  0  0  0  0  0
    0.7734    0.7407   -0.4305 H   0  0  0  0  0  0
    2.8170    0.0477   -4.0683 H   0  0  0  0  0  0
    3.6595   -1.4408   -3.5192 H   0  0  0  0  0  0
    1.6811   -2.7945   -4.1536 H   0  0  0  0  0  0
    0.8386   -1.3061   -4.7027 H   0  0  0  0  0  0
    1.9971   -2.4549   -6.6562 H   0  0  0  0  0  0
    3.1391    1.6501   10.8315 H   0  0  0  0  0  0
    3.0672    4.6756   14.5682 H   0  0  0  0  0  0
    5.3146    4.2423   15.5013 H   0  0  0  0  0  0
    6.9589    2.9171   14.2280 H   0  0  0  0  0  0
    1.5095    4.4632   12.9293 H   0  0  0  0  0  0
    1.5482    2.9089   12.0298 H   0  0  0  0  0  0
    2.1590    4.4102   11.2554 H   0  0  0  0  0  0
    4.0775    1.4615    4.3140 H   0  0  0  0  0  0
    1.6763   -0.0686    6.9559 H   0  0  0  0  0  0
  1  5  1  0  0  0
  1  2  2  0  0  0
  1 34  1  0  0  0
  2  3  1  0  0  0
  2 23  1  0  0  0
  3  4  1  0  0  0
  4  5  2  0  0  0
  4  6  1  0  0  0
  5 60  1  0  0  0
  6  7  1  0  0  0
  6 59  1  0  0  0
  7 12  2  0  0  0
  7  8  1  0  0  0
  8 35  1  0  0  0
  8  9  2  0  0  0
  9 14  1  0  0  0
  9 10  1  0  0  0
 10 11  2  0  0  0
 11 13  1  0  0  0
 11 12  1  0  0  0
 13 36  1  0  0  0
 13 37  1  0  0  0
 13 38  1  0  0  0
 14 19  1  0  0  0
 14 15  1  0  0  0
 15 16  1  0  0  0
 15 39  1  0  0  0
 15 40  1  0  0  0
 16 17  1  0  0  0
 16 41  1  0  0  0
 16 42  1  0  0  0
 17 18  1  0  0  0
 17 20  1  0  0  0
 18 19  1  0  0  0
 18 43  1  0  0  0
 18 44  1  0  0  0
 19 45  1  0  0  0
 19 46  1  0  0  0
 20 21  1  0  0  0
 20 47  1  0  0  0
 20 48  1  0  0  0
 21 22  1  0  0  0
 21 49  1  0  0  0
 21 50  1  0  0  0
 22 51  1  0  0  0
 23 24  2  0  0  0
 23 25  1  0  0  0
 25 26  1  0  0  0
 25 52  1  0  0  0
 26 31  2  0  0  0
 26 27  1  0  0  0
 27 28  2  0  0  0
 27 33  1  0  0  0
 28 29  1  0  0  0
 28 53  1  0  0  0
 29 30  2  0  0  0
 29 54  1  0  0  0
 30 31  1  0  0  0
 30 55  1  0  0  0
 31 32  1  0  0  0
 33 56  1  0  0  0
 33 57  1  0  0  0
 33 58  1  0  0  0
M  CHG  1   5   1
M  END
> <s_m_source_file>
/Users/andrea/Development/mcce-charges/epik_inhibitors/output/Dasatinib/Dasatinib-input.mol2

> <i_m_source_file_index>
1

> <r_epik_Ionization_Penalty>
  8.1607

> <r_epik_Ionization_Penalty_Charging>
  7.0071

> <r_epik_Ionization_Penalty_Neutral>
  1.1536

> <r_epik_State_Penalty>
  7.3502

> <i_epik_Tot_Q>
1

$$$$
~{N}-(2-chloro-6-methyl-phenyl)-2-[[6-[4-(2-hydroxyethyl)piperazin-1-yl]-2-methyl-pyrimidin-4-yl]amino]thiazole-5-carboxamide
                    3D
 Structure written by MMmdl.
 61 64  0  0  1  0            999 V2000
    2.8912    1.0679    8.3232 C   0  0  0  0  0  0
    3.9723    1.9231    8.3673 C   0  0  0  0  0  0
    4.5696    2.1775    6.7799 S   0  0  0  0  0  0
    3.3449    1.1365    6.1786 C   0  0  0  0  0  0
    2.5297    0.6162    7.0690 N   0  3  0  0  0  0
    3.2682    0.8910    4.7931 N   0  3  0  0  0  0
    2.3957    0.1013    4.0050 C   0  0  0  0  0  0
    2.6090    0.0862    2.6417 C   0  0  0  0  0  0
    1.7375   -0.6941    1.9097 C   0  0  0  0  0  0
    0.7328   -1.4099    2.4558 N   0  0  0  0  0  0
    0.6285   -1.3130    3.7949 C   0  0  0  0  0  0
    1.4112   -0.5888    4.6174 N   0  0  0  0  0  0
   -0.4708   -2.0904    4.4354 C   0  0  0  0  0  0
    1.9190   -0.7355    0.5227 N   0  0  0  0  0  0
    1.5392   -1.9638   -0.1864 C   0  0  0  0  0  0
    2.2575   -2.0489   -1.5351 C   0  0  0  0  0  0
    2.0315   -0.8353   -2.3298 N   0  0  0  0  0  0
    2.5393    0.3368   -1.6064 C   0  0  0  0  0  0
    1.8312    0.5015   -0.2594 C   0  0  0  0  0  0
    2.6768   -0.9507   -3.6371 C   0  0  0  0  0  0
    1.8160   -1.7849   -4.5783 C   0  0  0  0  0  0
    2.4635   -1.8825   -5.8405 O   0  0  0  0  0  0
    4.5938    2.5606    9.4788 C   0  0  0  0  0  0
    5.5839    3.3227    9.3612 O   0  0  0  0  0  0
    4.0067    2.3209   10.7455 N   0  0  0  0  0  0
    4.3666    2.8310   12.0183 C   0  0  0  0  0  0
    3.4402    3.5814   12.7425 C   0  0  0  0  0  0
    3.7814    4.0894   13.9960 C   0  0  0  0  0  0
    5.0490    3.8469   14.5252 C   0  0  0  0  0  0
    5.9753    3.0965   13.8010 C   0  0  0  0  0  0
    5.6341    2.5886   12.5475 C   0  0  0  0  0  0
    6.8146    1.6648   11.6875 Cl  0  0  0  0  0  0
    2.0740    3.8593   12.2037 C   0  0  0  0  0  0
    2.4214    0.8120    9.1681 H   0  0  0  0  0  0
    3.3356    0.5936    2.1784 H   0  0  0  0  0  0
   -0.4491   -1.9282    5.5232 H   0  0  0  0  0  0
   -0.3356   -3.1609    4.2216 H   0  0  0  0  0  0
   -1.4387   -1.7557    4.0340 H   0  0  0  0  0  0
    0.4515   -1.9598   -0.3500 H   0  0  0  0  0  0
    1.8140   -2.8319    0.4308 H   0  0  0  0  0  0
    3.3386   -2.1646   -1.3680 H   0  0  0  0  0  0
    1.8788   -2.9146   -2.0982 H   0  0  0  0  0  0
    3.6176    0.2170   -1.4251 H   0  0  0  0  0  0
    2.3669    1.2418   -2.2076 H   0  0  0  0  0  0
    2.3058    1.3163    0.3071 H   0  0  0  0  0  0
    0.7713    0.7418   -0.4292 H   0  0  0  0  0  0
    2.8134    0.0519   -4.0684 H   0  0  0  0  0  0
    3.6568   -1.4364   -3.5207 H   0  0  0  0  0  0
    1.6788   -2.7908   -4.1549 H   0  0  0  0  0  0
    0.8353   -1.3025   -4.7026 H   0  0  0  0  0  0
    1.9933   -2.4496   -6.6574 H   0  0  0  0  0  0
    3.1391    1.6501   10.8315 H   0  0  0  0  0  0
    3.0672    4.6756   14.5682 H   0  0  0  0  0  0
    5.3146    4.2423   15.5013 H   0  0  0  0  0  0
    6.9589    2.9171   14.2280 H   0  0  0  0  0  0
    1.5095    4.4632   12.9293 H   0  0  0  0  0  0
    1.5482    2.9089   12.0298 H   0  0  0  0  0  0
    2.1590    4.4102   11.2554 H   0  0  0  0  0  0
    4.0775    1.4615    4.3140 H   0  0  0  0  0  0
    1.6763   -0.0686    6.9559 H   0  0  0  0  0  0
    0.0271   -2.0389    1.8933 H   0  0  0  0  0  0
  1  5  1  0  0  0
  1  2  2  0  0  0
  1 34  1  0  0  0
  2  3  1  0  0  0
  2 23  1  0  0  0
  3  4  1  0  0  0
  4  5  2  0  0  0
  4  6  1  0  0  0
  5 60  1  0  0  0
  6  7  2  0  0  0
  6 59  1  0  0  0
  7  8  1  0  0  0
  7 12  1  0  0  0
  8  9  2  0  0  0
  8 35  1  0  0  0
  9 10  1  0  0  0
  9 14  1  0  0  0
 10 11  1  0  0  0
 10 61  1  0  0  0
 11 13  1  0  0  0
 11 12  2  0  0  0
 13 36  1  0  0  0
 13 37  1  0  0  0
 13 38  1  0  0  0
 14 19  1  0  0  0
 14 15  1  0  0  0
 15 16  1  0  0  0
 15 39  1  0  0  0
 15 40  1  0  0  0
 16 17  1  0  0  0
 16 41  1  0  0  0
 16 42  1  0  0  0
 17 18  1  0  0  0
 17 20  1  0  0  0
 18 19  1  0  0  0
 18 43  1  0  0  0
 18 44  1  0  0  0
 19 45  1  0  0  0
 19 46  1  0  0  0
 20 21  1  0  0  0
 20 47  1  0  0  0
 20 48  1  0  0  0
 21 22  1  0  0  0
 21 49  1  0  0  0
 21 50  1  0  0  0
 22 51  1  0  0  0
 23 24  2  0  0  0
 23 25  1  0  0  0
 25 26  1  0  0  0
 25 52  1  0  0  0
 26 31  2  0  0  0
 26 27  1  0  0  0
 27 28  2  0  0  0
 27 33  1  0  0  0
 28 29  1  0  0  0
 28 53  1  0  0  0
 29 30  2  0  0  0
 29 54  1  0  0  0
 30 31  1  0  0  0
 30 55  1  0  0  0
 31 32  1  0  0  0
 33 56  1  0  0  0
 33 57  1  0  0  0
 33 58  1  0  0  0
M  CHG  2   5   1   6   1
M  END
> <s_m_source_file>
/Users/andrea/Development/mcce-charges/epik_inhibitors/output/Dasatinib/Dasatinib-input.mol2

> <i_m_source_file_index>
1

> <r_epik_Ionization_Penalty>
  5.9929

> <r_epik_Ionization_Penalty_Charging>
  4.4265

> <r_epik_Ionization_Penalty_Neutral>
  1.5664

> <r_epik_State_Penalty>
  7.4586

> <i_epik_Tot_Q>
2

> <s_epik_Chemistry_Notes>
This compound has an imine and may undergo hydrolysis.

$$$$
~{N}-(2-chloro-6-methyl-phenyl)-2-[[6-[4-(2-hydroxyethyl)piperazin-1-yl]-2-methyl-pyrimidin-4-yl]amino]thiazole-5-carboxamide
                    3D
 Structure written by MMmdl.
 61 64  0  0  1  0            999 V2000
    5.9008    2.7554    3.3004 C   0  0  0  0  0  0
    6.2579    3.2019    4.5555 C   0  0  0  0  0  0
    5.2005    2.5310    5.7272 S   0  0  0  0  0  0
    4.3683    1.7104    4.4705 C   0  0  0  0  0  0
    4.8177    1.8998    3.2498 N   0  3  0  0  0  0
    3.2682    0.8910    4.7931 N   0  3  0  0  0  0
    2.3957    0.1013    4.0050 C   0  0  0  0  0  0
    2.6090    0.0862    2.6417 C   0  0  0  0  0  0
    1.7375   -0.6941    1.9097 C   0  0  0  0  0  0
    0.7328   -1.4099    2.4558 N   0  0  0  0  0  0
    0.6285   -1.3130    3.7949 C   0  0  0  0  0  0
    1.4112   -0.5888    4.6174 N   0  0  0  0  0  0
   -0.4708   -2.0904    4.4354 C   0  0  0  0  0  0
    1.9190   -0.7355    0.5227 N   0  0  0  0  0  0
    1.5392   -1.9638   -0.1864 C   0  0  0  0  0  0
    2.2575   -2.0489   -1.5351 C   0  0  0  0  0  0
    2.0315   -0.8353   -2.3298 N   0  0  0  0  0  0
    2.5393    0.3368   -1.6064 C   0  0  0  0  0  0
    1.8312    0.5015   -0.2594 C   0  0  0  0  0  0
    2.6768   -0.9507   -3.6371 C   0  0  0  0  0  0
    1.8160   -1.7849   -4.5783 C   0  0  0  0  0  0
    2.4635   -1.8825   -5.8405 O   0  0  0  0  0  0
    7.3082    4.0774    4.9540 C   0  0  0  0  0  0
    7.5125    4.3963    6.1504 O   0  0  0  0  0  0
    8.1534    4.5507    3.9204 N   0  0  0  0  0  0
    9.2898    5.3947    3.9991 C   0  0  0  0  0  0
   10.5250    4.9239    3.5539 C   0  0  0  0  0  0
   11.6511    5.7438    3.6257 C   0  0  0  0  0  0
   11.5420    7.0347    4.1429 C   0  0  0  0  0  0
   10.3067    7.5056    4.5881 C   0  0  0  0  0  0
    9.1806    6.6855    4.5162 C   0  0  0  0  0  0
    7.6720    7.3123    5.0798 Cl  0  0  0  0  0  0
   10.6757    3.5459    2.9948 C   0  0  0  0  0  0
    6.4175    3.0537    2.4979 H   0  0  0  0  0  0
    3.3356    0.5936    2.1784 H   0  0  0  0  0  0
   -0.4491   -1.9282    5.5232 H   0  0  0  0  0  0
   -0.3356   -3.1609    4.2216 H   0  0  0  0  0  0
   -1.4387   -1.7557    4.0340 H   0  0  0  0  0  0
    0.4515   -1.9598   -0.3500 H   0  0  0  0  0  0
    1.8140   -2.8319    0.4308 H   0  0  0  0  0  0
    3.3386   -2.1646   -1.3680 H   0  0  0  0  0  0
    1.8788   -2.9146   -2.0982 H   0  0  0  0  0  0
    3.6176    0.2170   -1.4251 H   0  0  0  0  0  0
    2.3669    1.2418   -2.2076 H   0  0  0  0  0  0
    2.3058    1.3163    0.3071 H   0  0  0  0  0  0
    0.7713    0.7418   -0.4292 H   0  0  0  0  0  0
    2.8134    0.0519   -4.0684 H   0  0  0  0  0  0
    3.6568   -1.4364   -3.5207 H   0  0  0  0  0  0
    1.6788   -2.7908   -4.1549 H   0  0  0  0  0  0
    0.8353   -1.3025   -4.7026 H   0  0  0  0  0  0
    1.9933   -2.4496   -6.6574 H   0  0  0  0  0  0
    7.9607    4.2618    2.8767 H   0  0  0  0  0  0
   12.6182    5.3865    3.2820 H   0  0  0  0  0  0
   12.4187    7.6732    4.1987 H   0  0  0  0  0  0
   10.2392    8.5140    4.9885 H   0  0  0  0  0  0
   11.7241    3.3800    2.7063 H   0  0  0  0  0  0
   10.0303    3.4363    2.1108 H   0  0  0  0  0  0
   10.3835    2.8074    3.7560 H   0  0  0  0  0  0
    3.1366    0.9338    5.8844 H   0  0  0  0  0  0
    4.4755    1.5024    2.2828 H   0  0  0  0  0  0
    0.0271   -2.0389    1.8933 H   0  0  0  0  0  0
  1  5  1  0  0  0
  1  2  2  0  0  0
  1 34  1  0  0  0
  2  3  1  0  0  0
  2 23  1  0  0  0
  3  4  1  0  0  0
  4  5  2  0  0  0
  4  6  1  0  0  0
  5 60  1  0  0  0
  6  7  2  0  0  0
  6 59  1  0  0  0
  7  8  1  0  0  0
  7 12  1  0  0  0
  8  9  2  0  0  0
  8 35  1  0  0  0
  9 10  1  0  0  0
  9 14  1  0  0  0
 10 11  1  0  0  0
 10 61  1  0  0  0
 11 13  1  0  0  0
 11 12  2  0  0  0
 13 36  1  0  0  0
 13 37  1  0  0  0
 13 38  1  0  0  0
 14 19  1  0  0  0
 14 15  1  0  0  0
 15 16  1  0  0  0
 15 39  1  0  0  0
 15 40  1  0  0  0
 16 17  1  0  0  0
 16 41  1  0  0  0
 16 42  1  0  0  0
 17 18  1  0  0  0
 17 20  1  0  0  0
 18 19  1  0  0  0
 18 43  1  0  0  0
 18 44  1  0  0  0
 19 45  1  0  0  0
 19 46  1  0  0  0
 20 21  1  0  0  0
 20 47  1  0  0  0
 20 48  1  0  0  0
 21 22  1  0  0  0
 21 49  1  0  0  0
 21 50  1  0  0  0
 22 51  1  0  0  0
 23 24  2  0  0  0
 23 25  1  0  0  0
 25 26  1  0  0  0
 25 52  1  0  0  0
 26 31  2  0  0  0
 26 27  1  0  0  0
 27 28  2  0  0  0
 27 33  1  0  0  0
 28 29  1  0  0  0
 28 53  1  0  0  0
 29 30  2  0  0  0
 29 54  1  0  0  0
 30 31  1  0  0  0
 30 55  1  0  0  0
 31 32  1  0  0  0
 33 56  1  0  0  0
 33 57  1  0  0  0
 33 58  1  0  0  0
M  CHG  2   5   1   6   1
M  END
> <s_m_source_file>
/Users/andrea/Development/mcce-charges/epik_inhibitors/output/Dasatinib/Dasatinib-input.mol2

> <i_m_source_file_index>
1

> <r_epik_Ionization_Penalty>
  5.9929

> <r_epik_Ionization_Penalty_Charging>
  4.4265

> <r_epik_Ionization_Penalty_Neutral>
  1.5664

> <r_epik_State_Penalty>
  7.4586

> <i_epik_Tot_Q>
2

> <s_epik_Chemistry_Notes>
This compound has an imine and may undergo hydrolysis.

$$$$
~{N}-(2-chloro-6-methyl-phenyl)-2-[[6-[4-(2-hydroxyethyl)piperazin-1-yl]-2-methyl-pyrimidin-4-yl]amino]thiazole-5-carboxamide
                    3D
 Structure written by MMmdl.
 62 65  0  0  1  0            999 V2000
    5.9008    2.7554    3.3004 C   0  0  0  0  0  0
    6.2579    3.2019    4.5555 C   0  0  0  0  0  0
    5.2005    2.5310    5.7272 S   0  0  0  0  0  0
    4.3683    1.7104    4.4705 C   0  0  0  0  0  0
    4.8177    1.8998    3.2498 N   0  3  0  0  0  0
    3.2682    0.8910    4.7931 N   0  3  0  0  0  0
    2.3957    0.1013    4.0050 C   0  0  0  0  0  0
    2.6090    0.0862    2.6417 C   0  0  0  0  0  0
    1.7375   -0.6941    1.9097 C   0  0  0  0  0  0
    0.7328   -1.4099    2.4558 N   0  0  0  0  0  0
    0.6285   -1.3130    3.7949 C   0  0  0  0  0  0
    1.4112   -0.5888    4.6174 N   0  0  0  0  0  0
   -0.4708   -2.0904    4.4354 C   0  0  0  0  0  0
    1.9190   -0.7355    0.5227 N   0  0  0  0  0  0
    1.5392   -1.9638   -0.1864 C   0  0  0  0  0  0
    2.2575   -2.0489   -1.5351 C   0  0  0  0  0  0
    2.0315   -0.8353   -2.3298 N   0  3  0  0  0  0
    2.5393    0.3368   -1.6064 C   0  0  0  0  0  0
    1.8312    0.5015   -0.2594 C   0  0  0  0  0  0
    2.6768   -0.9507   -3.6371 C   0  0  0  0  0  0
    1.8160   -1.7849   -4.5783 C   0  0  0  0  0  0
    2.4635   -1.8825   -5.8405 O   0  0  0  0  0  0
    7.3082    4.0774    4.9540 C   0  0  0  0  0  0
    7.5125    4.3963    6.1504 O   0  0  0  0  0  0
    8.1534    4.5507    3.9204 N   0  0  0  0  0  0
    9.2898    5.3947    3.9991 C   0  0  0  0  0  0
   10.5250    4.9239    3.5539 C   0  0  0  0  0  0
   11.6511    5.7438    3.6257 C   0  0  0  0  0  0
   11.5420    7.0347    4.1429 C   0  0  0  0  0  0
   10.3067    7.5056    4.5881 C   0  0  0  0  0  0
    9.1806    6.6855    4.5162 C   0  0  0  0  0  0
    7.6720    7.3123    5.0798 Cl  0  0  0  0  0  0
   10.6757    3.5459    2.9948 C   0  0  0  0  0  0
    6.4175    3.0537    2.4979 H   0  0  0  0  0  0
    3.3356    0.5936    2.1784 H   0  0  0  0  0  0
   -0.4491   -1.9282    5.5232 H   0  0  0  0  0  0
   -0.3356   -3.1609    4.2216 H   0  0  0  0  0  0
   -1.4387   -1.7557    4.0340 H   0  0  0  0  0  0
    0.4515   -1.9598   -0.3500 H   0  0  0  0  0  0
    1.8140   -2.8319    0.4308 H   0  0  0  0  0  0
    3.3386   -2.1646   -1.3680 H   0  0  0  0  0  0
    1.8788   -2.9146   -2.0982 H   0  0  0  0  0  0
    3.6176    0.2170   -1.4251 H   0  0  0  0  0  0
    2.3669    1.2418   -2.2076 H   0  0  0  0  0  0
    2.3058    1.3163    0.3071 H   0  0  0  0  0  0
    0.7713    0.7418   -0.4292 H   0  0  0  0  0  0
    2.8134    0.0519   -4.0684 H   0  0  0  0  0  0
    3.6568   -1.4364   -3.5207 H   0  0  0  0  0  0
    1.6788   -2.7908   -4.1549 H   0  0  0  0  0  0
    0.8353   -1.3025   -4.7026 H   0  0  0  0  0  0
    1.9933   -2.4496   -6.6574 H   0  0  0  0  0  0
    7.9607    4.2618    2.8767 H   0  0  0  0  0  0
   12.6182    5.3865    3.2820 H   0  0  0  0  0  0
   12.4187    7.6732    4.1987 H   0  0  0  0  0  0
   10.2392    8.5140    4.9885 H   0  0  0  0  0  0
   11.7241    3.3800    2.7063 H   0  0  0  0  0  0
   10.0303    3.4363    2.1108 H   0  0  0  0  0  0
   10.3835    2.8074    3.7560 H   0  0  0  0  0  0
    3.1366    0.9338    5.8844 H   0  0  0  0  0  0
    4.4755    1.5024    2.2828 H   0  0  0  0  0  0
    0.0271   -2.0389    1.8933 H   0  0  0  0  0  0
    0.9510   -0.7122   -2.4949 H   0  0  0  0  0  0
  1  5  1  0  0  0
  1  2  2  0  0  0
  1 34  1  0  0  0
  2  3  1  0  0  0
  2 23  1  0  0  0
  3  4  1  0  0  0
  4  5  2  0  0  0
  4  6  1  0  0  0
  5 60  1  0  0  0
  6  7  2  0  0  0
  6 59  1  0  0  0
  7  8  1  0  0  0
  7 12  1  0  0  0
  8  9  2  0  0  0
  8 35  1  0  0  0
  9 10  1  0  0  0
  9 14  1  0  0  0
 10 11  1  0  0  0
 10 61  1  0  0  0
 11 13  1  0  0  0
 11 12  2  0  0  0
 13 36  1  0  0  0
 13 37  1  0  0  0
 13 38  1  0  0  0
 14 19  1  0  0  0
 14 15  1  0  0  0
 15 16  1  0  0  0
 15 39  1  0  0  0
 15 40  1  0  0  0
 16 17  1  0  0  0
 16 41  1  0  0  0
 16 42  1  0  0  0
 17 18  1  0  0  0
 17 20  1  0  0  0
 17 62  1  0  0  0
 18 19  1  0  0  0
 18 43  1  0  0  0
 18 44  1  0  0  0
 19 45  1  0  0  0
 19 46  1  0  0  0
 20 21  1  0  0  0
 20 47  1  0  0  0
 20 48  1  0  0  0
 21 22  1  0  0  0
 21 49  1  0  0  0
 21 50  1  0  0  0
 22 51  1  0  0  0
 23 24  2  0  0  0
 23 25  1  0  0  0
 25 26  1  0  0  0
 25 52  1  0  0  0
 26 31  2  0  0  0
 26 27  1  0  0  0
 27 28  2  0  0  0
 27 33  1  0  0  0
 28 29  1  0  0  0
 28 53  1  0  0  0
 29 30  2  0  0  0
 29 54  1  0  0  0
 30 31  1  0  0  0
 30 55  1  0  0  0
 31 32  1  0  0  0
 33 56  1  0  0  0
 33 57  1  0  0  0
 33 58  1  0  0  0
M  CHG  3   5   1   6   1  17   1
M  END
> <s_m_source_file>
/Users/andrea/Development/mcce-charges/epik_inhibitors/output/Dasatinib/Dasatinib-input.mol2

> <i_m_source_file_index>
1

> <r_lp_tautomer_probability>
0.999286999849233

> <r_epik_Ionization_Penalty>
  6.5324

> <r_epik_Ionization_Penalty_Charging>
  4.7744

> <r_epik_Ionization_Penalty_Neutral>
  1.7581

> <r_epik_State_Penalty>
  7.4807

> <i_epik_Tot_Q>
3

> <s_epik_Chemistry_Notes>
This compound has an imine and may undergo hydrolysis.

$$$$
~{N}-(2-chloro-6-methyl-phenyl)-2-[[6-[4-(2-hydroxyethyl)piperazin-1-yl]-2-methyl-pyrimidin-4-yl]amino]thiazole-5-carboxamide
                    3D
 Structure written by MMmdl.
 62 65  0  0  1  0            999 V2000
    2.8912    1.0679    8.3232 C   0  0  0  0  0  0
    3.9723    1.9231    8.3673 C   0  0  0  0  0  0
    4.5696    2.1775    6.7799 S   0  0  0  0  0  0
    3.3449    1.1365    6.1786 C   0  0  0  0  0  0
    2.5297    0.6162    7.0690 N   0  3  0  0  0  0
    3.2682    0.8910    4.7931 N   0  3  0  0  0  0
    2.3957    0.1013    4.0050 C   0  0  0  0  0  0
    2.6090    0.0862    2.6417 C   0  0  0  0  0  0
    1.7375   -0.6941    1.9097 C   0  0  0  0  0  0
    0.7328   -1.4099    2.4558 N   0  0  0  0  0  0
    0.6285   -1.3130    3.7949 C   0  0  0  0  0  0
    1.4112   -0.5888    4.6174 N   0  0  0  0  0  0
   -0.4708   -2.0904    4.4354 C   0  0  0  0  0  0
    1.9190   -0.7355    0.5227 N   0  0  0  0  0  0
    1.5392   -1.9638   -0.1864 C   0  0  0  0  0  0
    2.2575   -2.0489   -1.5351 C   0  0  0  0  0  0
    2.0315   -0.8353   -2.3298 N   0  3  0  0  0  0
    2.5393    0.3368   -1.6064 C   0  0  0  0  0  0
    1.8312    0.5015   -0.2594 C   0  0  0  0  0  0
    2.6768   -0.9507   -3.6371 C   0  0  0  0  0  0
    1.8160   -1.7849   -4.5783 C   0  0  0  0  0  0
    2.4635   -1.8825   -5.8405 O   0  0  0  0  0  0
    4.5938    2.5606    9.4788 C   0  0  0  0  0  0
    5.5839    3.3227    9.3612 O   0  0  0  0  0  0
    4.0067    2.3209   10.7455 N   0  0  0  0  0  0
    4.3666    2.8310   12.0183 C   0  0  0  0  0  0
    3.4402    3.5814   12.7425 C   0  0  0  0  0  0
    3.7814    4.0894   13.9960 C   0  0  0  0  0  0
    5.0490    3.8469   14.5252 C   0  0  0  0  0  0
    5.9753    3.0965   13.8010 C   0  0  0  0  0  0
    5.6341    2.5886   12.5475 C   0  0  0  0  0  0
    6.8146    1.6648   11.6875 Cl  0  0  0  0  0  0
    2.0740    3.8593   12.2037 C   0  0  0  0  0  0
    2.4214    0.8120    9.1681 H   0  0  0  0  0  0
    3.3356    0.5936    2.1784 H   0  0  0  0  0  0
   -0.4491   -1.9282    5.5232 H   0  0  0  0  0  0
   -0.3356   -3.1609    4.2216 H   0  0  0  0  0  0
   -1.4387   -1.7557    4.0340 H   0  0  0  0  0  0
    0.4515   -1.9598   -0.3500 H   0  0  0  0  0  0
    1.8140   -2.8319    0.4308 H   0  0  0  0  0  0
    3.3386   -2.1646   -1.3680 H   0  0  0  0  0  0
    1.8788   -2.9146   -2.0982 H   0  0  0  0  0  0
    3.6176    0.2170   -1.4251 H   0  0  0  0  0  0
    2.3669    1.2418   -2.2076 H   0  0  0  0  0  0
    2.3058    1.3163    0.3071 H   0  0  0  0  0  0
    0.7713    0.7418   -0.4292 H   0  0  0  0  0  0
    2.8134    0.0519   -4.0684 H   0  0  0  0  0  0
    3.6568   -1.4364   -3.5207 H   0  0  0  0  0  0
    1.6788   -2.7908   -4.1549 H   0  0  0  0  0  0
    0.8353   -1.3025   -4.7026 H   0  0  0  0  0  0
    1.9933   -2.4496   -6.6574 H   0  0  0  0  0  0
    3.1391    1.6501   10.8315 H   0  0  0  0  0  0
    3.0672    4.6756   14.5682 H   0  0  0  0  0  0
    5.3146    4.2423   15.5013 H   0  0  0  0  0  0
    6.9589    2.9171   14.2280 H   0  0  0  0  0  0
    1.5095    4.4632   12.9293 H   0  0  0  0  0  0
    1.5482    2.9089   12.0298 H   0  0  0  0  0  0
    2.1590    4.4102   11.2554 H   0  0  0  0  0  0
    4.0775    1.4615    4.3140 H   0  0  0  0  0  0
    1.6763   -0.0686    6.9559 H   0  0  0  0  0  0
    0.0271   -2.0389    1.8933 H   0  0  0  0  0  0
    0.9510   -0.7122   -2.4949 H   0  0  0  0  0  0
  1  5  1  0  0  0
  1  2  2  0  0  0
  1 34  1  0  0  0
  2  3  1  0  0  0
  2 23  1  0  0  0
  3  4  1  0  0  0
  4  5  2  0  0  0
  4  6  1  0  0  0
  5 60  1  0  0  0
  6  7  2  0  0  0
  6 59  1  0  0  0
  7  8  1  0  0  0
  7 12  1  0  0  0
  8  9  2  0  0  0
  8 35  1  0  0  0
  9 10  1  0  0  0
  9 14  1  0  0  0
 10 11  1  0  0  0
 10 61  1  0  0  0
 11 13  1  0  0  0
 11 12  2  0  0  0
 13 36  1  0  0  0
 13 37  1  0  0  0
 13 38  1  0  0  0
 14 19  1  0  0  0
 14 15  1  0  0  0
 15 16  1  0  0  0
 15 39  1  0  0  0
 15 40  1  0  0  0
 16 17  1  0  0  0
 16 41  1  0  0  0
 16 42  1  0  0  0
 17 18  1  0  0  0
 17 20  1  0  0  0
 17 62  1  0  0  0
 18 19  1  0  0  0
 18 43  1  0  0  0
 18 44  1  0  0  0
 19 45  1  0  0  0
 19 46  1  0  0  0
 20 21  1  0  0  0
 20 47  1  0  0  0
 20 48  1  0  0  0
 21 22  1  0  0  0
 21 49  1  0  0  0
 21 50  1  0  0  0
 22 51  1  0  0  0
 23 24  2  0  0  0
 23 25  1  0  0  0
 25 26  1  0  0  0
 25 52  1  0  0  0
 26 31  2  0  0  0
 26 27  1  0  0  0
 27 28  2  0  0  0
 27 33  1  0  0  0
 28 29  1  0  0  0
 28 53  1  0  0  0
 29 30  2  0  0  0
 29 54  1  0  0  0
 30 31  1  0  0  0
 30 55  1  0  0  0
 31 32  1  0  0  0
 33 56  1  0  0  0
 33 57  1  0  0  0
 33 58  1  0  0  0
M  CHG  3   5   1   6   1  17   1
M  END
> <s_m_source_file>
/Users/andrea/Development/mcce-charges/epik_inhibitors/output/Dasatinib/Dasatinib-input.mol2

> <i_m_source_file_index>
1

> <r_lp_tautomer_probability>
0.999286999849233

> <r_epik_Ionization_Penalty>
  6.5324

> <r_epik_Ionization_Penalty_Charging>
  4.7744

> <r_epik_Ionization_Penalty_Neutral>
  1.7581

> <r_epik_State_Penalty>
  7.5997

> <i_epik_Tot_Q>
3

> <s_epik_Chemistry_Notes>
This compound has an imine and may undergo hydrolysis.

$$$$
~{N}-(2-chloro-6-methyl-phenyl)-2-[[6-[4-(2-hydroxyethyl)piperazin-1-yl]-2-methyl-pyrimidin-4-yl]amino]thiazole-5-carboxamide
                    3D
 Structure written by MMmdl.
 61 64  0  0  1  0            999 V2000
    2.8912    1.0679    8.3232 C   0  0  0  0  0  0
    3.9723    1.9231    8.3673 C   0  0  0  0  0  0
    4.5696    2.1775    6.7799 S   0  0  0  0  0  0
    3.3449    1.1365    6.1786 C   0  0  0  0  0  0
    2.5297    0.6162    7.0690 N   0  3  0  0  0  0
    3.2682    0.8910    4.7931 N   0  0  0  0  0  0
    2.3957    0.1013    4.0050 C   0  0  0  0  0  0
    2.6090    0.0862    2.6417 C   0  0  0  0  0  0
    1.7376   -0.6943    1.9097 C   0  0  0  0  0  0
    0.7328   -1.4099    2.4558 N   0  0  0  0  0  0
    0.6283   -1.3128    3.7949 C   0  0  0  0  0  0
    1.4111   -0.5886    4.6174 N   0  3  0  0  0  0
   -0.4711   -2.0900    4.4354 C   0  0  0  0  0  0
    1.9199   -0.7366    0.5229 N   0  0  0  0  0  0
    1.5399   -1.9651   -0.1857 C   0  0  0  0  0  0
    2.2588   -2.0514   -1.5340 C   0  0  0  0  0  0
    2.0338   -0.8381   -2.3295 N   0  0  0  0  0  0
    2.5418    0.3342   -1.6066 C   0  0  0  0  0  0
    1.8331    0.5000   -0.2600 C   0  0  0  0  0  0
    2.6797   -0.9547   -3.6364 C   0  0  0  0  0  0
    1.8191   -1.7889   -4.5775 C   0  0  0  0  0  0
    2.4671   -1.8876   -5.8394 O   0  0  0  0  0  0
    4.5938    2.5606    9.4788 C   0  0  0  0  0  0
    5.5839    3.3227    9.3612 O   0  0  0  0  0  0
    4.0067    2.3209   10.7455 N   0  0  0  0  0  0
    4.3666    2.8310   12.0183 C   0  0  0  0  0  0
    3.4402    3.5814   12.7425 C   0  0  0  0  0  0
    3.7814    4.0894   13.9960 C   0  0  0  0  0  0
    5.0490    3.8469   14.5252 C   0  0  0  0  0  0
    5.9753    3.0965   13.8010 C   0  0  0  0  0  0
    5.6341    2.5886   12.5475 C   0  0  0  0  0  0
    6.8146    1.6648   11.6875 Cl  0  0  0  0  0  0
    2.0740    3.8593   12.2037 C   0  0  0  0  0  0
    2.3237    0.7373    9.1834 H   0  0  0  0  0  0
    3.3354    0.5938    2.1783 H   0  0  0  0  0  0
   -1.0335   -2.6346    3.6626 H   0  0  0  0  0  0
   -1.1470   -1.4017    4.9640 H   0  0  0  0  0  0
   -0.0441   -2.8070    5.1519 H   0  0  0  0  0  0
    0.4522   -1.9607   -0.3499 H   0  0  0  0  0  0
    1.8139   -2.8330    0.4321 H   0  0  0  0  0  0
    3.3398   -2.1676   -1.3663 H   0  0  0  0  0  0
    1.8800   -2.9173   -2.0968 H   0  0  0  0  0  0
    3.6199    0.2139   -1.4246 H   0  0  0  0  0  0
    2.3702    1.2388   -2.2084 H   0  0  0  0  0  0
    2.3078    1.3149    0.3063 H   0  0  0  0  0  0
    0.7734    0.7407   -0.4305 H   0  0  0  0  0  0
    2.8170    0.0477   -4.0683 H   0  0  0  0  0  0
    3.6595   -1.4408   -3.5192 H   0  0  0  0  0  0
    1.6811   -2.7945   -4.1536 H   0  0  0  0  0  0
    0.8386   -1.3061   -4.7027 H   0  0  0  0  0  0
    1.9971   -2.4549   -6.6562 H   0  0  0  0  0  0
    3.1391    1.6501   10.8315 H   0  0  0  0  0  0
    3.0672    4.6756   14.5682 H   0  0  0  0  0  0
    5.3146    4.2423   15.5013 H   0  0  0  0  0  0
    6.9589    2.9171   14.2280 H   0  0  0  0  0  0
    1.5095    4.4632   12.9293 H   0  0  0  0  0  0
    1.5482    2.9089   12.0298 H   0  0  0  0  0  0
    2.1590    4.4102   11.2554 H   0  0  0  0  0  0
    4.0775    1.4615    4.3140 H   0  0  0  0  0  0
    1.6763   -0.0686    6.9559 H   0  0  0  0  0  0
    1.2216   -0.5917    5.7010 H   0  0  0  0  0  0
  1  5  1  0  0  0
  1  2  2  0  0  0
  1 34  1  0  0  0
  2  3  1  0  0  0
  2 23  1  0  0  0
  3  4  1  0  0  0
  4  5  2  0  0  0
  4  6  1  0  0  0
  5 60  1  0  0  0
  6  7  1  0  0  0
  6 59  1  0  0  0
  7 12  2  0  0  0
  7  8  1  0  0  0
  8 35  1  0  0  0
  8  9  2  0  0  0
  9 14  1  0  0  0
  9 10  1  0  0  0
 10 11  2  0  0  0
 11 13  1  0  0  0
 11 12  1  0  0  0
 12 61  1  0  0  0
 13 36  1  0  0  0
 13 37  1  0  0  0
 13 38  1  0  0  0
 14 19  1  0  0  0
 14 15  1  0  0  0
 15 16  1  0  0  0
 15 39  1  0  0  0
 15 40  1  0  0  0
 16 17  1  0  0  0
 16 41  1  0  0  0
 16 42  1  0  0  0
 17 18  1  0  0  0
 17 20  1  0  0  0
 18 19  1  0  0  0
 18 43  1  0  0  0
 18 44  1  0  0  0
 19 45  1  0  0  0
 19 46  1  0  0  0
 20 21  1  0  0  0
 20 47  1  0  0  0
 20 48  1  0  0  0
 21 22  1  0  0  0
 21 49  1  0  0  0
 21 50  1  0  0  0
 22 51  1  0  0  0
 23 24  2  0  0  0
 23 25  1  0  0  0
 25 26  1  0  0  0
 25 52  1  0  0  0
 26 31  2  0  0  0
 26 27  1  0  0  0
 27 28  2  0  0  0
 27 33  1  0  0  0
 28 29  1  0  0  0
 28 53  1  0  0  0
 29 30  2  0  0  0
 29 54  1  0  0  0
 30 31  1  0  0  0
 30 55  1  0  0  0
 31 32  1  0  0  0
 33 56  1  0  0  0
 33 57  1  0  0  0
 33 58  1  0  0  0
M  CHG  2   5   1  12   1
M  END
> <s_m_source_file>
/Users/andrea/Development/mcce-charges/epik_inhibitors/output/Dasatinib/Dasatinib-input.mol2

> <i_m_source_file_index>
1

> <r_epik_Ionization_Penalty>
  7.3433

> <r_epik_Ionization_Penalty_Charging>
  7.1410

> <r_epik_Ionization_Penalty_Neutral>
  0.2024

> <r_epik_State_Penalty>
  8.4794

> <i_epik_Tot_Q>
2

$$$$
~{N}-(2-chloro-6-methyl-phenyl)-2-[[6-[4-(2-hydroxyethyl)piperazin-1-yl]-2-methyl-pyrimidin-4-yl]amino]thiazole-5-carboxamide
                    3D
 Structure written by MMmdl.
 60 63  0  0  1  0            999 V2000
    2.8912    1.0679    8.3232 C   0  0  0  0  0  0
    3.9723    1.9231    8.3673 C   0  0  0  0  0  0
    4.5696    2.1775    6.7799 S   0  0  0  0  0  0
    3.3449    1.1365    6.1786 C   0  0  0  0  0  0
    2.5297    0.6162    7.0690 N   0  3  0  0  0  0
    3.2682    0.8910    4.7931 N   0  0  0  0  0  0
    2.3957    0.1013    4.0050 C   0  0  0  0  0  0
    2.6090    0.0862    2.6417 C   0  0  0  0  0  0
    1.7375   -0.6941    1.9097 C   0  0  0  0  0  0
    0.7328   -1.4099    2.4558 N   0  0  0  0  0  0
    0.6285   -1.3130    3.7949 C   0  0  0  0  0  0
    1.4112   -0.5888    4.6174 N   0  0  0  0  0  0
   -0.4708   -2.0904    4.4354 C   0  0  0  0  0  0
    1.9190   -0.7355    0.5227 N   0  0  0  0  0  0
    1.5392   -1.9638   -0.1864 C   0  0  0  0  0  0
    2.2575   -2.0489   -1.5351 C   0  0  0  0  0  0
    2.0315   -0.8353   -2.3298 N   0  0  0  0  0  0
    2.5393    0.3368   -1.6064 C   0  0  0  0  0  0
    1.8312    0.5015   -0.2594 C   0  0  0  0  0  0
    2.6768   -0.9507   -3.6371 C   0  0  0  0  0  0
    1.8160   -1.7849   -4.5783 C   0  0  0  0  0  0
    2.4635   -1.8825   -5.8405 O   0  0  0  0  0  0
    4.5938    2.5606    9.4788 C   0  0  0  0  0  0
    5.5839    3.3227    9.3612 O   0  0  0  0  0  0
    4.0067    2.3209   10.7455 N   0  0  0  0  0  0
    4.3666    2.8310   12.0183 C   0  0  0  0  0  0
    3.4402    3.5814   12.7425 C   0  0  0  0  0  0
    3.7814    4.0894   13.9960 C   0  0  0  0  0  0
    5.0490    3.8469   14.5252 C   0  0  0  0  0  0
    5.9753    3.0965   13.8010 C   0  0  0  0  0  0
    5.6341    2.5886   12.5475 C   0  0  0  0  0  0
    6.8146    1.6648   11.6875 Cl  0  0  0  0  0  0
    2.0740    3.8593   12.2037 C   0  0  0  0  0  0
    2.4214    0.8120    9.1681 H   0  0  0  0  0  0
    3.3356    0.5936    2.1784 H   0  0  0  0  0  0
   -0.4491   -1.9282    5.5232 H   0  0  0  0  0  0
   -0.3356   -3.1609    4.2216 H   0  0  0  0  0  0
   -1.4387   -1.7557    4.0340 H   0  0  0  0  0  0
    0.4515   -1.9598   -0.3500 H   0  0  0  0  0  0
    1.8140   -2.8319    0.4308 H   0  0  0  0  0  0
    3.3386   -2.1646   -1.3680 H   0  0  0  0  0  0
    1.8788   -2.9146   -2.0982 H   0  0  0  0  0  0
    3.6176    0.2170   -1.4251 H   0  0  0  0  0  0
    2.3669    1.2418   -2.2076 H   0  0  0  0  0  0
    2.3058    1.3163    0.3071 H   0  0  0  0  0  0
    0.7713    0.7418   -0.4292 H   0  0  0  0  0  0
    2.8134    0.0519   -4.0684 H   0  0  0  0  0  0
    3.6568   -1.4364   -3.5207 H   0  0  0  0  0  0
    1.6788   -2.7908   -4.1549 H   0  0  0  0  0  0
    0.8353   -1.3025   -4.7026 H   0  0  0  0  0  0
    1.9933   -2.4496   -6.6574 H   0  0  0  0  0  0
    3.1391    1.6501   10.8315 H   0  0  0  0  0  0
    3.0672    4.6756   14.5682 H   0  0  0  0  0  0
    5.3146    4.2423   15.5013 H   0  0  0  0  0  0
    6.9589    2.9171   14.2280 H   0  0  0  0  0  0
    1.5095    4.4632   12.9293 H   0  0  0  0  0  0
    1.5482    2.9089   12.0298 H   0  0  0  0  0  0
    2.1590    4.4102   11.2554 H   0  0  0  0  0  0
    1.6763   -0.0686    6.9559 H   0  0  0  0  0  0
    0.0271   -2.0389    1.8933 H   0  0  0  0  0  0
  1  5  1  0  0  0
  1  2  2  0  0  0
  1 34  1  0  0  0
  2  3  1  0  0  0
  2 23  1  0  0  0
  3  4  1  0  0  0
  4  5  2  0  0  0
  4  6  1  0  0  0
  5 59  1  0  0  0
  6  7  2  0  0  0
  7  8  1  0  0  0
  7 12  1  0  0  0
  8  9  2  0  0  0
  8 35  1  0  0  0
  9 10  1  0  0  0
  9 14  1  0  0  0
 10 11  1  0  0  0
 10 60  1  0  0  0
 11 13  1  0  0  0
 11 12  2  0  0  0
 13 36  1  0  0  0
 13 37  1  0  0  0
 13 38  1  0  0  0
 14 19  1  0  0  0
 14 15  1  0  0  0
 15 16  1  0  0  0
 15 39  1  0  0  0
 15 40  1  0  0  0
 16 17  1  0  0  0
 16 41  1  0  0  0
 16 42  1  0  0  0
 17 18  1  0  0  0
 17 20  1  0  0  0
 18 19  1  0  0  0
 18 43  1  0  0  0
 18 44  1  0  0  0
 19 45  1  0  0  0
 19 46  1  0  0  0
 20 21  1  0  0  0
 20 47  1  0  0  0
 20 48  1  0  0  0
 21 22  1  0  0  0
 21 49  1  0  0  0
 21 50  1  0  0  0
 22 51  1  0  0  0
 23 24  2  0  0  0
 23 25  1  0  0  0
 25 26  1  0  0  0
 25 52  1  0  0  0
 26 31  2  0  0  0
 26 27  1  0  0  0
 27 28  2  0  0  0
 27 33  1  0  0  0
 28 29  1  0  0  0
 28 53  1  0  0  0
 29 30  2  0  0  0
 29 54  1  0  0  0
 30 31  1  0  0  0
 30 55  1  0  0  0
 31 32  1  0  0  0
 33 56  1  0  0  0
 33 57  1  0  0  0
 33 58  1  0  0  0
M  CHG  1   5   1
M  END
> <s_m_source_file>
/Users/andrea/Development/mcce-charges/epik_inhibitors/output/Dasatinib/Dasatinib-input.mol2

> <i_m_source_file_index>
1

> <r_epik_Ionization_Penalty>
  6.3818

> <r_epik_Ionization_Penalty_Charging>
  6.1854

> <r_epik_Ionization_Penalty_Neutral>
  0.1964

> <r_epik_State_Penalty>
  9.8423

> <i_epik_Tot_Q>
1

$$$$
~{N}-(2-chloro-6-methyl-phenyl)-2-[[6-[4-(2-hydroxyethyl)piperazin-1-yl]-2-methyl-pyrimidin-4-yl]amino]thiazole-5-carboxamide
                    3D
 Structure written by MMmdl.
 60 63  0  0  1  0            999 V2000
    5.9008    2.7554    3.3004 C   0  0  0  0  0  0
    6.2579    3.2019    4.5555 C   0  0  0  0  0  0
    5.2005    2.5310    5.7272 S   0  0  0  0  0  0
    4.3683    1.7104    4.4705 C   0  0  0  0  0  0
    4.8177    1.8998    3.2498 N   0  3  0  0  0  0
    3.2682    0.8910    4.7931 N   0  0  0  0  0  0
    2.3957    0.1013    4.0050 C   0  0  0  0  0  0
    2.6090    0.0862    2.6417 C   0  0  0  0  0  0
    1.7375   -0.6941    1.9097 C   0  0  0  0  0  0
    0.7328   -1.4099    2.4558 N   0  0  0  0  0  0
    0.6285   -1.3130    3.7949 C   0  0  0  0  0  0
    1.4112   -0.5888    4.6174 N   0  0  0  0  0  0
   -0.4708   -2.0904    4.4354 C   0  0  0  0  0  0
    1.9190   -0.7355    0.5227 N   0  0  0  0  0  0
    1.5392   -1.9638   -0.1864 C   0  0  0  0  0  0
    2.2575   -2.0489   -1.5351 C   0  0  0  0  0  0
    2.0315   -0.8353   -2.3298 N   0  0  0  0  0  0
    2.5393    0.3368   -1.6064 C   0  0  0  0  0  0
    1.8312    0.5015   -0.2594 C   0  0  0  0  0  0
    2.6768   -0.9507   -3.6371 C   0  0  0  0  0  0
    1.8160   -1.7849   -4.5783 C   0  0  0  0  0  0
    2.4635   -1.8825   -5.8405 O   0  0  0  0  0  0
    7.3082    4.0774    4.9540 C   0  0  0  0  0  0
    7.5125    4.3963    6.1504 O   0  0  0  0  0  0
    8.1534    4.5507    3.9204 N   0  0  0  0  0  0
    9.2898    5.3947    3.9991 C   0  0  0  0  0  0
   10.5250    4.9239    3.5539 C   0  0  0  0  0  0
   11.6511    5.7438    3.6257 C   0  0  0  0  0  0
   11.5420    7.0347    4.1429 C   0  0  0  0  0  0
   10.3067    7.5056    4.5881 C   0  0  0  0  0  0
    9.1806    6.6855    4.5162 C   0  0  0  0  0  0
    7.6720    7.3123    5.0798 Cl  0  0  0  0  0  0
   10.6757    3.5459    2.9948 C   0  0  0  0  0  0
    6.4175    3.0537    2.4979 H   0  0  0  0  0  0
    3.3356    0.5936    2.1784 H   0  0  0  0  0  0
   -0.4491   -1.9282    5.5232 H   0  0  0  0  0  0
   -0.3356   -3.1609    4.2216 H   0  0  0  0  0  0
   -1.4387   -1.7557    4.0340 H   0  0  0  0  0  0
    0.4515   -1.9598   -0.3500 H   0  0  0  0  0  0
    1.8140   -2.8319    0.4308 H   0  0  0  0  0  0
    3.3386   -2.1646   -1.3680 H   0  0  0  0  0  0
    1.8788   -2.9146   -2.0982 H   0  0  0  0  0  0
    3.6176    0.2170   -1.4251 H   0  0  0  0  0  0
    2.3669    1.2418   -2.2076 H   0  0  0  0  0  0
    2.3058    1.3163    0.3071 H   0  0  0  0  0  0
    0.7713    0.7418   -0.4292 H   0  0  0  0  0  0
    2.8134    0.0519   -4.0684 H   0  0  0  0  0  0
    3.6568   -1.4364   -3.5207 H   0  0  0  0  0  0
    1.6788   -2.7908   -4.1549 H   0  0  0  0  0  0
    0.8353   -1.3025   -4.7026 H   0  0  0  0  0  0
    1.9933   -2.4496   -6.6574 H   0  0  0  0  0  0
    7.9607    4.2618    2.8767 H   0  0  0  0  0  0
   12.6182    5.3865    3.2820 H   0  0  0  0  0  0
   12.4187    7.6732    4.1987 H   0  0  0  0  0  0
   10.2392    8.5140    4.9885 H   0  0  0  0  0  0
   11.7241    3.3800    2.7063 H   0  0  0  0  0  0
   10.0303    3.4363    2.1108 H   0  0  0  0  0  0
   10.3835    2.8074    3.7560 H   0  0  0  0  0  0
    4.4755    1.5024    2.2828 H   0  0  0  0  0  0
    0.0271   -2.0389    1.8933 H   0  0  0  0  0  0
  1  5  1  0  0  0
  1  2  2  0  0  0
  1 34  1  0  0  0
  2  3  1  0  0  0
  2 23  1  0  0  0
  3  4  1  0  0  0
  4  5  2  0  0  0
  4  6  1  0  0  0
  5 59  1  0  0  0
  6  7  2  0  0  0
  7  8  1  0  0  0
  7 12  1  0  0  0
  8  9  2  0  0  0
  8 35  1  0  0  0
  9 10  1  0  0  0
  9 14  1  0  0  0
 10 11  1  0  0  0
 10 60  1  0  0  0
 11 13  1  0  0  0
 11 12  2  0  0  0
 13 36  1  0  0  0
 13 37  1  0  0  0
 13 38  1  0  0  0
 14 19  1  0  0  0
 14 15  1  0  0  0
 15 16  1  0  0  0
 15 39  1  0  0  0
 15 40  1  0  0  0
 16 17  1  0  0  0
 16 41  1  0  0  0
 16 42  1  0  0  0
 17 18  1  0  0  0
 17 20  1  0  0  0
 18 19  1  0  0  0
 18 43  1  0  0  0
 18 44  1  0  0  0
 19 45  1  0  0  0
 19 46  1  0  0  0
 20 21  1  0  0  0
 20 47  1  0  0  0
 20 48  1  0  0  0
 21 22  1  0  0  0
 21 49  1  0  0  0
 21 50  1  0  0  0
 22 51  1  0  0  0
 23 24  2  0  0  0
 23 25  1  0  0  0
 25 26  1  0  0  0
 25 52  1  0  0  0
 26 31  2  0  0  0
 26 27  1  0  0  0
 27 28  2  0  0  0
 27 33  1  0  0  0
 28 29  1  0  0  0
 28 53  1  0  0  0
 29 30  2  0  0  0
 29 54  1  0  0  0
 30 31  1  0  0  0
 30 55  1  0  0  0
 31 32  1  0  0  0
 33 56  1  0  0  0
 33 57  1  0  0  0
 33 58  1  0  0  0
M  CHG  1   5   1
M  END
> <s_m_source_file>
/Users/andrea/Development/mcce-charges/epik_inhibitors/output/Dasatinib/Dasatinib-input.mol2

> <i_m_source_file_index>
1

> <r_epik_Ionization_Penalty>
  6.3818

> <r_epik_Ionization_Penalty_Charging>
  6.1854

> <r_epik_Ionization_Penalty_Neutral>
  0.1964

> <r_epik_State_Penalty>
  9.8423

> <i_epik_Tot_Q>
1

$$$$
~{N}-(2-chloro-6-methyl-phenyl)-2-[[6-[4-(2-hydroxyethyl)piperazin-1-yl]-2-methyl-pyrimidin-4-yl]amino]thiazole-5-carboxamide
                    3D
 Structure written by MMmdl.
 62 65  0  0  1  0            999 V2000
    2.8912    1.0679    8.3232 C   0  0  0  0  0  0
    3.9723    1.9231    8.3673 C   0  0  0  0  0  0
    4.5696    2.1775    6.7799 S   0  0  0  0  0  0
    3.3449    1.1365    6.1786 C   0  0  0  0  0  0
    2.5297    0.6162    7.0690 N   0  3  0  0  0  0
    3.2682    0.8910    4.7931 N   0  0  0  0  0  0
    2.3957    0.1013    4.0050 C   0  0  0  0  0  0
    2.6090    0.0862    2.6417 C   0  0  0  0  0  0
    1.7376   -0.6943    1.9097 C   0  0  0  0  0  0
    0.7328   -1.4099    2.4558 N   0  0  0  0  0  0
    0.6283   -1.3128    3.7949 C   0  0  0  0  0  0
    1.4111   -0.5886    4.6174 N   0  3  0  0  0  0
   -0.4711   -2.0900    4.4354 C   0  0  0  0  0  0
    1.9199   -0.7366    0.5229 N   0  0  0  0  0  0
    1.5399   -1.9651   -0.1857 C   0  0  0  0  0  0
    2.2588   -2.0514   -1.5340 C   0  0  0  0  0  0
    2.0338   -0.8381   -2.3295 N   0  3  0  0  0  0
    2.5418    0.3342   -1.6066 C   0  0  0  0  0  0
    1.8331    0.5000   -0.2600 C   0  0  0  0  0  0
    2.6797   -0.9547   -3.6364 C   0  0  0  0  0  0
    1.8191   -1.7889   -4.5775 C   0  0  0  0  0  0
    2.4671   -1.8876   -5.8394 O   0  0  0  0  0  0
    4.5938    2.5606    9.4788 C   0  0  0  0  0  0
    5.5839    3.3227    9.3612 O   0  0  0  0  0  0
    4.0067    2.3209   10.7455 N   0  0  0  0  0  0
    4.3666    2.8310   12.0183 C   0  0  0  0  0  0
    3.4402    3.5814   12.7425 C   0  0  0  0  0  0
    3.7814    4.0894   13.9960 C   0  0  0  0  0  0
    5.0490    3.8469   14.5252 C   0  0  0  0  0  0
    5.9753    3.0965   13.8010 C   0  0  0  0  0  0
    5.6341    2.5886   12.5475 C   0  0  0  0  0  0
    6.8146    1.6648   11.6875 Cl  0  0  0  0  0  0
    2.0740    3.8593   12.2037 C   0  0  0  0  0  0
    2.3237    0.7373    9.1834 H   0  0  0  0  0  0
    3.3354    0.5938    2.1783 H   0  0  0  0  0  0
   -1.0335   -2.6346    3.6626 H   0  0  0  0  0  0
   -1.1470   -1.4017    4.9640 H   0  0  0  0  0  0
   -0.0441   -2.8070    5.1519 H   0  0  0  0  0  0
    0.4522   -1.9607   -0.3499 H   0  0  0  0  0  0
    1.8139   -2.8330    0.4321 H   0  0  0  0  0  0
    3.3398   -2.1676   -1.3663 H   0  0  0  0  0  0
    1.8800   -2.9173   -2.0968 H   0  0  0  0  0  0
    3.6199    0.2139   -1.4246 H   0  0  0  0  0  0
    2.3702    1.2388   -2.2084 H   0  0  0  0  0  0
    2.3078    1.3149    0.3063 H   0  0  0  0  0  0
    0.7734    0.7407   -0.4305 H   0  0  0  0  0  0
    2.8170    0.0477   -4.0683 H   0  0  0  0  0  0
    3.6595   -1.4408   -3.5192 H   0  0  0  0  0  0
    1.6811   -2.7945   -4.1536 H   0  0  0  0  0  0
    0.8386   -1.3061   -4.7027 H   0  0  0  0  0  0
    1.9971   -2.4549   -6.6562 H   0  0  0  0  0  0
    3.1391    1.6501   10.8315 H   0  0  0  0  0  0
    3.0672    4.6756   14.5682 H   0  0  0  0  0  0
    5.3146    4.2423   15.5013 H   0  0  0  0  0  0
    6.9589    2.9171   14.2280 H   0  0  0  0  0  0
    1.5095    4.4632   12.9293 H   0  0  0  0  0  0
    1.5482    2.9089   12.0298 H   0  0  0  0  0  0
    2.1590    4.4102   11.2554 H   0  0  0  0  0  0
    4.0775    1.4615    4.3140 H   0  0  0  0  0  0
    1.6763   -0.0686    6.9559 H   0  0  0  0  0  0
    1.2216   -0.5917    5.7010 H   0  0  0  0  0  0
    0.9534   -0.7146   -2.4953 H   0  0  0  0  0  0
  1  5  1  0  0  0
  1  2  2  0  0  0
  1 34  1  0  0  0
  2  3  1  0  0  0
  2 23  1  0  0  0
  3  4  1  0  0  0
  4  5  2  0  0  0
  4  6  1  0  0  0
  5 60  1  0  0  0
  6  7  1  0  0  0
  6 59  1  0  0  0
  7 12  2  0  0  0
  7  8  1  0  0  0
  8 35  1  0  0  0
  8  9  2  0  0  0
  9 14  1  0  0  0
  9 10  1  0  0  0
 10 11  2  0  0  0
 11 13  1  0  0  0
 11 12  1  0  0  0
 12 61  1  0  0  0
 13 36  1  0  0  0
 13 37  1  0  0  0
 13 38  1  0  0  0
 14 19  1  0  0  0
 14 15  1  0  0  0
 15 16  1  0  0  0
 15 39  1  0  0  0
 15 40  1  0  0  0
 16 17  1  0  0  0
 16 41  1  0  0  0
 16 42  1  0  0  0
 17 18  1  0  0  0
 17 20  1  0  0  0
 17 62  1  0  0  0
 18 19  1  0  0  0
 18 43  1  0  0  0
 18 44  1  0  0  0
 19 45  1  0  0  0
 19 46  1  0  0  0
 20 21  1  0  0  0
 20 47  1  0  0  0
 20 48  1  0  0  0
 21 22  1  0  0  0
 21 49  1  0  0  0
 21 50  1  0  0  0
 22 51  1  0  0  0
 23 24  2  0  0  0
 23 25  1  0  0  0
 25 26  1  0  0  0
 25 52  1  0  0  0
 26 31  2  0  0  0
 26 27  1  0  0  0
 27 28  2  0  0  0
 27 33  1  0  0  0
 28 29  1  0  0  0
 28 53  1  0  0  0
 29 30  2  0  0  0
 29 54  1  0  0  0
 30 31  1  0  0  0
 30 55  1  0  0  0
 31 32  1  0  0  0
 33 56  1  0  0  0
 33 57  1  0  0  0
 33 58  1  0  0  0
M  CHG  3   5   1  12   1  17   1
M  END
> <s_m_source_file>
/Users/andrea/Development/mcce-charges/epik_inhibitors/output/Dasatinib/Dasatinib-input.mol2

> <i_m_source_file_index>
1

> <r_lp_tautomer_probability>
0.000712999999892427

> <r_epik_Ionization_Penalty>
  8.9336

> <r_epik_Ionization_Penalty_Charging>
  8.9211

> <r_epik_Ionization_Penalty_Neutral>
  0.0125

> <r_epik_State_Penalty>
  9.8965

> <i_epik_Tot_Q>
3

$$$$
~{N}-(2-chloro-6-methyl-phenyl)-2-[[6-[4-(2-hydroxyethyl)piperazin-1-yl]-2-methyl-pyrimidin-4-yl]amino]thiazole-5-carboxamide
                    3D
 Structure written by MMmdl.
 60 63  0  0  1  0            999 V2000
    2.8912    1.0679    8.3232 C   0  0  0  0  0  0
    3.9723    1.9231    8.3673 C   0  0  0  0  0  0
    4.5696    2.1775    6.7799 S   0  0  0  0  0  0
    3.3449    1.1365    6.1786 C   0  0  0  0  0  0
    2.5297    0.6162    7.0690 N   0  0  0  0  0  0
    3.2682    0.8910    4.7931 N   0  0  0  0  0  0
    2.3957    0.1013    4.0050 C   0  0  0  0  0  0
    2.6090    0.0862    2.6417 C   0  0  0  0  0  0
    1.7376   -0.6943    1.9097 C   0  0  0  0  0  0
    0.7328   -1.4099    2.4558 N   0  0  0  0  0  0
    0.6283   -1.3128    3.7949 C   0  0  0  0  0  0
    1.4111   -0.5886    4.6174 N   0  3  0  0  0  0
   -0.4711   -2.0900    4.4354 C   0  0  0  0  0  0
    1.9199   -0.7366    0.5229 N   0  0  0  0  0  0
    1.5399   -1.9651   -0.1857 C   0  0  0  0  0  0
    2.2588   -2.0514   -1.5340 C   0  0  0  0  0  0
    2.0338   -0.8381   -2.3295 N   0  0  0  0  0  0
    2.5418    0.3342   -1.6066 C   0  0  0  0  0  0
    1.8331    0.5000   -0.2600 C   0  0  0  0  0  0
    2.6797   -0.9547   -3.6364 C   0  0  0  0  0  0
    1.8191   -1.7889   -4.5775 C   0  0  0  0  0  0
    2.4671   -1.8876   -5.8394 O   0  0  0  0  0  0
    4.5938    2.5606    9.4788 C   0  0  0  0  0  0
    5.5839    3.3227    9.3612 O   0  0  0  0  0  0
    4.0067    2.3209   10.7455 N   0  0  0  0  0  0
    4.3666    2.8310   12.0183 C   0  0  0  0  0  0
    3.4402    3.5814   12.7425 C   0  0  0  0  0  0
    3.7814    4.0894   13.9960 C   0  0  0  0  0  0
    5.0490    3.8469   14.5252 C   0  0  0  0  0  0
    5.9753    3.0965   13.8010 C   0  0  0  0  0  0
    5.6341    2.5886   12.5475 C   0  0  0  0  0  0
    6.8146    1.6648   11.6875 Cl  0  0  0  0  0  0
    2.0740    3.8593   12.2037 C   0  0  0  0  0  0
    2.3237    0.7373    9.1834 H   0  0  0  0  0  0
    3.3354    0.5938    2.1783 H   0  0  0  0  0  0
   -1.0335   -2.6346    3.6626 H   0  0  0  0  0  0
   -1.1470   -1.4017    4.9640 H   0  0  0  0  0  0
   -0.0441   -2.8070    5.1519 H   0  0  0  0  0  0
    0.4522   -1.9607   -0.3499 H   0  0  0  0  0  0
    1.8139   -2.8330    0.4321 H   0  0  0  0  0  0
    3.3398   -2.1676   -1.3663 H   0  0  0  0  0  0
    1.8800   -2.9173   -2.0968 H   0  0  0  0  0  0
    3.6199    0.2139   -1.4246 H   0  0  0  0  0  0
    2.3702    1.2388   -2.2084 H   0  0  0  0  0  0
    2.3078    1.3149    0.3063 H   0  0  0  0  0  0
    0.7734    0.7407   -0.4305 H   0  0  0  0  0  0
    2.8170    0.0477   -4.0683 H   0  0  0  0  0  0
    3.6595   -1.4408   -3.5192 H   0  0  0  0  0  0
    1.6811   -2.7945   -4.1536 H   0  0  0  0  0  0
    0.8386   -1.3061   -4.7027 H   0  0  0  0  0  0
    1.9971   -2.4549   -6.6562 H   0  0  0  0  0  0
    3.1391    1.6501   10.8315 H   0  0  0  0  0  0
    3.0672    4.6756   14.5682 H   0  0  0  0  0  0
    5.3146    4.2423   15.5013 H   0  0  0  0  0  0
    6.9589    2.9171   14.2280 H   0  0  0  0  0  0
    1.5095    4.4632   12.9293 H   0  0  0  0  0  0
    1.5482    2.9089   12.0298 H   0  0  0  0  0  0
    2.1590    4.4102   11.2554 H   0  0  0  0  0  0
    1.6763   -0.0686    6.9559 H   0  0  0  0  0  0
    1.2216   -0.5917    5.7010 H   0  0  0  0  0  0
  1  5  1  0  0  0
  1  2  2  0  0  0
  1 34  1  0  0  0
  2  3  1  0  0  0
  2 23  1  0  0  0
  3  4  1  0  0  0
  4  5  1  0  0  0
  4  6  2  0  0  0
  5 59  1  0  0  0
  6  7  1  0  0  0
  7 12  2  0  0  0
  7  8  1  0  0  0
  8 35  1  0  0  0
  8  9  2  0  0  0
  9 14  1  0  0  0
  9 10  1  0  0  0
 10 11  2  0  0  0
 11 13  1  0  0  0
 11 12  1  0  0  0
 12 60  1  0  0  0
 13 36  1  0  0  0
 13 37  1  0  0  0
 13 38  1  0  0  0
 14 19  1  0  0  0
 14 15  1  0  0  0
 15 16  1  0  0  0
 15 39  1  0  0  0
 15 40  1  0  0  0
 16 17  1  0  0  0
 16 41  1  0  0  0
 16 42  1  0  0  0
 17 18  1  0  0  0
 17 20  1  0  0  0
 18 19  1  0  0  0
 18 43  1  0  0  0
 18 44  1  0  0  0
 19 45  1  0  0  0
 19 46  1  0  0  0
 20 21  1  0  0  0
 20 47  1  0  0  0
 20 48  1  0  0  0
 21 22  1  0  0  0
 21 49  1  0  0  0
 21 50  1  0  0  0
 22 51  1  0  0  0
 23 24  2  0  0  0
 23 25  1  0  0  0
 25 26  1  0  0  0
 25 52  1  0  0  0
 26 31  2  0  0  0
 26 27  1  0  0  0
 27 28  2  0  0  0
 27 33  1  0  0  0
 28 29  1  0  0  0
 28 53  1  0  0  0
 29 30  2  0  0  0
 29 54  1  0  0  0
 30 31  1  0  0  0
 30 55  1  0  0  0
 31 32  1  0  0  0
 33 56  1  0  0  0
 33 57  1  0  0  0
 33 58  1  0  0  0
M  CHG  1  12   1
M  END
> <s_m_source_file>
/Users/andrea/Development/mcce-charges/epik_inhibitors/output/Dasatinib/Dasatinib-input.mol2

> <i_m_source_file_index>
1

> <r_lp_tautomer_probability>
3.65454615150152e-06

> <r_epik_Ionization_Penalty>
  3.0005

> <r_epik_Ionization_Penalty_Charging>
  2.8041

> <r_epik_Ionization_Penalty_Neutral>
  0.1964

> <r_epik_State_Penalty>
  9.9629

> <i_epik_Tot_Q>
1

$$$$
~{N}-(2-chloro-6-methyl-phenyl)-2-[[6-[4-(2-hydroxyethyl)piperazin-1-yl]-2-methyl-pyrimidin-4-yl]amino]thiazole-5-carboxamide
                    3D
 Structure written by MMmdl.
 61 64  0  0  1  0            999 V2000
    2.8912    1.0679    8.3232 C   0  0  0  0  0  0
    3.9723    1.9231    8.3673 C   0  0  0  0  0  0
    4.5696    2.1775    6.7799 S   0  0  0  0  0  0
    3.3449    1.1365    6.1786 C   0  0  0  0  0  0
    2.5297    0.6162    7.0690 N   0  0  0  0  0  0
    3.2682    0.8910    4.7931 N   0  0  0  0  0  0
    2.3957    0.1013    4.0050 C   0  0  0  0  0  0
    2.6090    0.0862    2.6417 C   0  0  0  0  0  0
    1.7376   -0.6943    1.9097 C   0  0  0  0  0  0
    0.7328   -1.4099    2.4558 N   0  0  0  0  0  0
    0.6283   -1.3128    3.7949 C   0  0  0  0  0  0
    1.4111   -0.5886    4.6174 N   0  3  0  0  0  0
   -0.4711   -2.0900    4.4354 C   0  0  0  0  0  0
    1.9199   -0.7366    0.5229 N   0  0  0  0  0  0
    1.5399   -1.9651   -0.1857 C   0  0  0  0  0  0
    2.2588   -2.0514   -1.5340 C   0  0  0  0  0  0
    2.0338   -0.8381   -2.3295 N   0  3  0  0  0  0
    2.5418    0.3342   -1.6066 C   0  0  0  0  0  0
    1.8331    0.5000   -0.2600 C   0  0  0  0  0  0
    2.6797   -0.9547   -3.6364 C   0  0  0  0  0  0
    1.8191   -1.7889   -4.5775 C   0  0  0  0  0  0
    2.4671   -1.8876   -5.8394 O   0  0  0  0  0  0
    4.5938    2.5606    9.4788 C   0  0  0  0  0  0
    5.5839    3.3227    9.3612 O   0  0  0  0  0  0
    4.0067    2.3209   10.7455 N   0  0  0  0  0  0
    4.3666    2.8310   12.0183 C   0  0  0  0  0  0
    3.4402    3.5814   12.7425 C   0  0  0  0  0  0
    3.7814    4.0894   13.9960 C   0  0  0  0  0  0
    5.0490    3.8469   14.5252 C   0  0  0  0  0  0
    5.9753    3.0965   13.8010 C   0  0  0  0  0  0
    5.6341    2.5886   12.5475 C   0  0  0  0  0  0
    6.8146    1.6648   11.6875 Cl  0  0  0  0  0  0
    2.0740    3.8593   12.2037 C   0  0  0  0  0  0
    2.3237    0.7373    9.1834 H   0  0  0  0  0  0
    3.3354    0.5938    2.1783 H   0  0  0  0  0  0
   -1.0335   -2.6346    3.6626 H   0  0  0  0  0  0
   -1.1470   -1.4017    4.9640 H   0  0  0  0  0  0
   -0.0441   -2.8070    5.1519 H   0  0  0  0  0  0
    0.4522   -1.9607   -0.3499 H   0  0  0  0  0  0
    1.8139   -2.8330    0.4321 H   0  0  0  0  0  0
    3.3398   -2.1676   -1.3663 H   0  0  0  0  0  0
    1.8800   -2.9173   -2.0968 H   0  0  0  0  0  0
    3.6199    0.2139   -1.4246 H   0  0  0  0  0  0
    2.3702    1.2388   -2.2084 H   0  0  0  0  0  0
    2.3078    1.3149    0.3063 H   0  0  0  0  0  0
    0.7734    0.7407   -0.4305 H   0  0  0  0  0  0
    2.8170    0.0477   -4.0683 H   0  0  0  0  0  0
    3.6595   -1.4408   -3.5192 H   0  0  0  0  0  0
    1.6811   -2.7945   -4.1536 H   0  0  0  0  0  0
    0.8386   -1.3061   -4.7027 H   0  0  0  0  0  0
    1.9971   -2.4549   -6.6562 H   0  0  0  0  0  0
    3.1391    1.6501   10.8315 H   0  0  0  0  0  0
    3.0672    4.6756   14.5682 H   0  0  0  0  0  0
    5.3146    4.2423   15.5013 H   0  0  0  0  0  0
    6.9589    2.9171   14.2280 H   0  0  0  0  0  0
    1.5095    4.4632   12.9293 H   0  0  0  0  0  0
    1.5482    2.9089   12.0298 H   0  0  0  0  0  0
    2.1590    4.4102   11.2554 H   0  0  0  0  0  0
    1.6763   -0.0686    6.9559 H   0  0  0  0  0  0
    1.2216   -0.5917    5.7010 H   0  0  0  0  0  0
    0.9534   -0.7146   -2.4953 H   0  0  0  0  0  0
  1  5  1  0  0  0
  1  2  2  0  0  0
  1 34  1  0  0  0
  2  3  1  0  0  0
  2 23  1  0  0  0
  3  4  1  0  0  0
  4  5  1  0  0  0
  4  6  2  0  0  0
  5 59  1  0  0  0
  6  7  1  0  0  0
  7 12  2  0  0  0
  7  8  1  0  0  0
  8 35  1  0  0  0
  8  9  2  0  0  0
  9 14  1  0  0  0
  9 10  1  0  0  0
 10 11  2  0  0  0
 11 13  1  0  0  0
 11 12  1  0  0  0
 12 60  1  0  0  0
 13 36  1  0  0  0
 13 37  1  0  0  0
 13 38  1  0  0  0
 14 19  1  0  0  0
 14 15  1  0  0  0
 15 16  1  0  0  0
 15 39  1  0  0  0
 15 40  1  0  0  0
 16 17  1  0  0  0
 16 41  1  0  0  0
 16 42  1  0  0  0
 17 18  1  0  0  0
 17 20  1  0  0  0
 17 61  1  0  0  0
 18 19  1  0  0  0
 18 43  1  0  0  0
 18 44  1  0  0  0
 19 45  1  0  0  0
 19 46  1  0  0  0
 20 21  1  0  0  0
 20 47  1  0  0  0
 20 48  1  0  0  0
 21 22  1  0  0  0
 21 49  1  0  0  0
 21 50  1  0  0  0
 22 51  1  0  0  0
 23 24  2  0  0  0
 23 25  1  0  0  0
 25 26  1  0  0  0
 25 52  1  0  0  0
 26 31  2  0  0  0
 26 27  1  0  0  0
 27 28  2  0  0  0
 27 33  1  0  0  0
 28 29  1  0  0  0
 28 53  1  0  0  0
 29 30  2  0  0  0
 29 54  1  0  0  0
 30 31  1  0  0  0
 30 55  1  0  0  0
 31 32  1  0  0  0
 33 56  1  0  0  0
 33 57  1  0  0  0
 33 58  1  0  0  0
M  CHG  2  12   1  17   1
M  END
> <s_m_source_file>
/Users/andrea/Development/mcce-charges/epik_inhibitors/output/Dasatinib/Dasatinib-input.mol2

> <i_m_source_file_index>
1

> <r_lp_tautomer_probability>
3.65454615150152e-06

> <r_epik_Ionization_Penalty>
  3.4597

> <r_epik_Ionization_Penalty_Charging>
  3.4584

> <r_epik_Ionization_Penalty_Neutral>
  0.0013

> <r_epik_State_Penalty>
 10.1888

> <i_epik_Tot_Q>
2

$$$$
~{N}-(2-chloro-6-methyl-phenyl)-2-[[6-[4-(2-hydroxyethyl)piperazin-1-yl]-2-methyl-pyrimidin-4-yl]amino]thiazole-5-carboxamide
                    3D
 Structure written by MMmdl.
 61 64  0  0  1  0            999 V2000
    5.9008    2.7554    3.3004 C   0  0  0  0  0  0
    6.2579    3.2019    4.5555 C   0  0  0  0  0  0
    5.2005    2.5310    5.7272 S   0  0  0  0  0  0
    4.3683    1.7104    4.4705 C   0  0  0  0  0  0
    4.8177    1.8998    3.2498 N   0  3  0  0  0  0
    3.2682    0.8910    4.7931 N   0  0  0  0  0  0
    2.3957    0.1013    4.0050 C   0  0  0  0  0  0
    2.6090    0.0862    2.6417 C   0  0  0  0  0  0
    1.7375   -0.6941    1.9097 C   0  0  0  0  0  0
    0.7328   -1.4099    2.4558 N   0  0  0  0  0  0
    0.6285   -1.3130    3.7949 C   0  0  0  0  0  0
    1.4112   -0.5888    4.6174 N   0  0  0  0  0  0
   -0.4708   -2.0904    4.4354 C   0  0  0  0  0  0
    1.9190   -0.7355    0.5227 N   0  0  0  0  0  0
    1.5392   -1.9638   -0.1864 C   0  0  0  0  0  0
    2.2575   -2.0489   -1.5351 C   0  0  0  0  0  0
    2.0315   -0.8353   -2.3298 N   0  3  0  0  0  0
    2.5393    0.3368   -1.6064 C   0  0  0  0  0  0
    1.8312    0.5015   -0.2594 C   0  0  0  0  0  0
    2.6768   -0.9507   -3.6371 C   0  0  0  0  0  0
    1.8160   -1.7849   -4.5783 C   0  0  0  0  0  0
    2.4635   -1.8825   -5.8405 O   0  0  0  0  0  0
    7.3082    4.0774    4.9540 C   0  0  0  0  0  0
    7.5125    4.3963    6.1504 O   0  0  0  0  0  0
    8.1534    4.5507    3.9204 N   0  0  0  0  0  0
    9.2898    5.3947    3.9991 C   0  0  0  0  0  0
   10.5250    4.9239    3.5539 C   0  0  0  0  0  0
   11.6511    5.7438    3.6257 C   0  0  0  0  0  0
   11.5420    7.0347    4.1429 C   0  0  0  0  0  0
   10.3067    7.5056    4.5881 C   0  0  0  0  0  0
    9.1806    6.6855    4.5162 C   0  0  0  0  0  0
    7.6720    7.3123    5.0798 Cl  0  0  0  0  0  0
   10.6757    3.5459    2.9948 C   0  0  0  0  0  0
    6.4175    3.0537    2.4979 H   0  0  0  0  0  0
    3.3356    0.5936    2.1784 H   0  0  0  0  0  0
   -0.4491   -1.9282    5.5232 H   0  0  0  0  0  0
   -0.3356   -3.1609    4.2216 H   0  0  0  0  0  0
   -1.4387   -1.7557    4.0340 H   0  0  0  0  0  0
    0.4515   -1.9598   -0.3500 H   0  0  0  0  0  0
    1.8140   -2.8319    0.4308 H   0  0  0  0  0  0
    3.3386   -2.1646   -1.3680 H   0  0  0  0  0  0
    1.8788   -2.9146   -2.0982 H   0  0  0  0  0  0
    3.6176    0.2170   -1.4251 H   0  0  0  0  0  0
    2.3669    1.2418   -2.2076 H   0  0  0  0  0  0
    2.3058    1.3163    0.3071 H   0  0  0  0  0  0
    0.7713    0.7418   -0.4292 H   0  0  0  0  0  0
    2.8134    0.0519   -4.0684 H   0  0  0  0  0  0
    3.6568   -1.4364   -3.5207 H   0  0  0  0  0  0
    1.6788   -2.7908   -4.1549 H   0  0  0  0  0  0
    0.8353   -1.3025   -4.7026 H   0  0  0  0  0  0
    1.9933   -2.4496   -6.6574 H   0  0  0  0  0  0
    7.9607    4.2618    2.8767 H   0  0  0  0  0  0
   12.6182    5.3865    3.2820 H   0  0  0  0  0  0
   12.4187    7.6732    4.1987 H   0  0  0  0  0  0
   10.2392    8.5140    4.9885 H   0  0  0  0  0  0
   11.7241    3.3800    2.7063 H   0  0  0  0  0  0
   10.0303    3.4363    2.1108 H   0  0  0  0  0  0
   10.3835    2.8074    3.7560 H   0  0  0  0  0  0
    4.4755    1.5024    2.2828 H   0  0  0  0  0  0
    0.0271   -2.0389    1.8933 H   0  0  0  0  0  0
    0.9510   -0.7122   -2.4949 H   0  0  0  0  0  0
  1  5  1  0  0  0
  1  2  2  0  0  0
  1 34  1  0  0  0
  2  3  1  0  0  0
  2 23  1  0  0  0
  3  4  1  0  0  0
  4  5  2  0  0  0
  4  6  1  0  0  0
  5 59  1  0  0  0
  6  7  2  0  0  0
  7  8  1  0  0  0
  7 12  1  0  0  0
  8  9  2  0  0  0
  8 35  1  0  0  0
  9 10  1  0  0  0
  9 14  1  0  0  0
 10 11  1  0  0  0
 10 60  1  0  0  0
 11 13  1  0  0  0
 11 12  2  0  0  0
 13 36  1  0  0  0
 13 37  1  0  0  0
 13 38  1  0  0  0
 14 19  1  0  0  0
 14 15  1  0  0  0
 15 16  1  0  0  0
 15 39  1  0  0  0
 15 40  1  0  0  0
 16 17  1  0  0  0
 16 41  1  0  0  0
 16 42  1  0  0  0
 17 18  1  0  0  0
 17 20  1  0  0  0
 17 61  1  0  0  0
 18 19  1  0  0  0
 18 43  1  0  0  0
 18 44  1  0  0  0
 19 45  1  0  0  0
 19 46  1  0  0  0
 20 21  1  0  0  0
 20 47  1  0  0  0
 20 48  1  0  0  0
 21 22  1  0  0  0
 21 49  1  0  0  0
 21 50  1  0  0  0
 22 51  1  0  0  0
 23 24  2  0  0  0
 23 25  1  0  0  0
 25 26  1  0  0  0
 25 52  1  0  0  0
 26 31  2  0  0  0
 26 27  1  0  0  0
 27 28  2  0  0  0
 27 33  1  0  0  0
 28 29  1  0  0  0
 28 53  1  0  0  0
 29 30  2  0  0  0
 29 54  1  0  0  0
 30 31  1  0  0  0
 30 55  1  0  0  0
 31 32  1  0  0  0
 33 56  1  0  0  0
 33 57  1  0  0  0
 33 58  1  0  0  0
M  CHG  2   5   1  17   1
M  END
> <s_m_source_file>
/Users/andrea/Development/mcce-charges/epik_inhibitors/output/Dasatinib/Dasatinib-input.mol2

> <i_m_source_file_index>
1

> <r_epik_Ionization_Penalty>
  9.7932

> <r_epik_Ionization_Penalty_Charging>
  9.7919

> <r_epik_Ionization_Penalty_Neutral>
  0.0013

> <r_epik_State_Penalty>
 10.2806

> <i_epik_Tot_Q>
2

$$$$
~{N}-(2-chloro-6-methyl-phenyl)-2-[[6-[4-(2-hydroxyethyl)piperazin-1-yl]-2-methyl-pyrimidin-4-yl]amino]thiazole-5-carboxamide
                    3D
 Structure written by MMmdl.
 61 64  0  0  1  0            999 V2000
    2.8912    1.0679    8.3232 C   0  0  0  0  0  0
    3.9723    1.9231    8.3673 C   0  0  0  0  0  0
    4.5696    2.1775    6.7799 S   0  0  0  0  0  0
    3.3449    1.1365    6.1786 C   0  0  0  0  0  0
    2.5297    0.6162    7.0690 N   0  3  0  0  0  0
    3.2682    0.8910    4.7931 N   0  0  0  0  0  0
    2.3957    0.1013    4.0050 C   0  0  0  0  0  0
    2.6090    0.0862    2.6417 C   0  0  0  0  0  0
    1.7375   -0.6941    1.9097 C   0  0  0  0  0  0
    0.7328   -1.4099    2.4558 N   0  0  0  0  0  0
    0.6285   -1.3130    3.7949 C   0  0  0  0  0  0
    1.4112   -0.5888    4.6174 N   0  0  0  0  0  0
   -0.4708   -2.0904    4.4354 C   0  0  0  0  0  0
    1.9190   -0.7355    0.5227 N   0  0  0  0  0  0
    1.5392   -1.9638   -0.1864 C   0  0  0  0  0  0
    2.2575   -2.0489   -1.5351 C   0  0  0  0  0  0
    2.0315   -0.8353   -2.3298 N   0  3  0  0  0  0
    2.5393    0.3368   -1.6064 C   0  0  0  0  0  0
    1.8312    0.5015   -0.2594 C   0  0  0  0  0  0
    2.6768   -0.9507   -3.6371 C   0  0  0  0  0  0
    1.8160   -1.7849   -4.5783 C   0  0  0  0  0  0
    2.4635   -1.8825   -5.8405 O   0  0  0  0  0  0
    4.5938    2.5606    9.4788 C   0  0  0  0  0  0
    5.5839    3.3227    9.3612 O   0  0  0  0  0  0
    4.0067    2.3209   10.7455 N   0  0  0  0  0  0
    4.3666    2.8310   12.0183 C   0  0  0  0  0  0
    3.4402    3.5814   12.7425 C   0  0  0  0  0  0
    3.7814    4.0894   13.9960 C   0  0  0  0  0  0
    5.0490    3.8469   14.5252 C   0  0  0  0  0  0
    5.9753    3.0965   13.8010 C   0  0  0  0  0  0
    5.6341    2.5886   12.5475 C   0  0  0  0  0  0
    6.8146    1.6648   11.6875 Cl  0  0  0  0  0  0
    2.0740    3.8593   12.2037 C   0  0  0  0  0  0
    2.4214    0.8120    9.1681 H   0  0  0  0  0  0
    3.3356    0.5936    2.1784 H   0  0  0  0  0  0
   -0.4491   -1.9282    5.5232 H   0  0  0  0  0  0
   -0.3356   -3.1609    4.2216 H   0  0  0  0  0  0
   -1.4387   -1.7557    4.0340 H   0  0  0  0  0  0
    0.4515   -1.9598   -0.3500 H   0  0  0  0  0  0
    1.8140   -2.8319    0.4308 H   0  0  0  0  0  0
    3.3386   -2.1646   -1.3680 H   0  0  0  0  0  0
    1.8788   -2.9146   -2.0982 H   0  0  0  0  0  0
    3.6176    0.2170   -1.4251 H   0  0  0  0  0  0
    2.3669    1.2418   -2.2076 H   0  0  0  0  0  0
    2.3058    1.3163    0.3071 H   0  0  0  0  0  0
    0.7713    0.7418   -0.4292 H   0  0  0  0  0  0
    2.8134    0.0519   -4.0684 H   0  0  0  0  0  0
    3.6568   -1.4364   -3.5207 H   0  0  0  0  0  0
    1.6788   -2.7908   -4.1549 H   0  0  0  0  0  0
    0.8353   -1.3025   -4.7026 H   0  0  0  0  0  0
    1.9933   -2.4496   -6.6574 H   0  0  0  0  0  0
    3.1391    1.6501   10.8315 H   0  0  0  0  0  0
    3.0672    4.6756   14.5682 H   0  0  0  0  0  0
    5.3146    4.2423   15.5013 H   0  0  0  0  0  0
    6.9589    2.9171   14.2280 H   0  0  0  0  0  0
    1.5095    4.4632   12.9293 H   0  0  0  0  0  0
    1.5482    2.9089   12.0298 H   0  0  0  0  0  0
    2.1590    4.4102   11.2554 H   0  0  0  0  0  0
    1.6763   -0.0686    6.9559 H   0  0  0  0  0  0
    0.0271   -2.0389    1.8933 H   0  0  0  0  0  0
    0.9510   -0.7122   -2.4949 H   0  0  0  0  0  0
  1  5  1  0  0  0
  1  2  2  0  0  0
  1 34  1  0  0  0
  2  3  1  0  0  0
  2 23  1  0  0  0
  3  4  1  0  0  0
  4  5  2  0  0  0
  4  6  1  0  0  0
  5 59  1  0  0  0
  6  7  2  0  0  0
  7  8  1  0  0  0
  7 12  1  0  0  0
  8  9  2  0  0  0
  8 35  1  0  0  0
  9 10  1  0  0  0
  9 14  1  0  0  0
 10 11  1  0  0  0
 10 60  1  0  0  0
 11 13  1  0  0  0
 11 12  2  0  0  0
 13 36  1  0  0  0
 13 37  1  0  0  0
 13 38  1  0  0  0
 14 19  1  0  0  0
 14 15  1  0  0  0
 15 16  1  0  0  0
 15 39  1  0  0  0
 15 40  1  0  0  0
 16 17  1  0  0  0
 16 41  1  0  0  0
 16 42  1  0  0  0
 17 18  1  0  0  0
 17 20  1  0  0  0
 17 61  1  0  0  0
 18 19  1  0  0  0
 18 43  1  0  0  0
 18 44  1  0  0  0
 19 45  1  0  0  0
 19 46  1  0  0  0
 20 21  1  0  0  0
 20 47  1  0  0  0
 20 48  1  0  0  0
 21 22  1  0  0  0
 21 49  1  0  0  0
 21 50  1  0  0  0
 22 51  1  0  0  0
 23 24  2  0  0  0
 23 25  1  0  0  0
 25 26  1  0  0  0
 25 52  1  0  0  0
 26 31  2  0  0  0
 26 27  1  0  0  0
 27 28  2  0  0  0
 27 33  1  0  0  0
 28 29  1  0  0  0
 28 53  1  0  0  0
 29 30  2  0  0  0
 29 54  1  0  0  0
 30 31  1  0  0  0
 30 55  1  0  0  0
 31 32  1  0  0  0
 33 56  1  0  0  0
 33 57  1  0  0  0
 33 58  1  0  0  0
M  CHG  2   5   1  17   1
M  END
> <s_m_source_file>
/Users/andrea/Development/mcce-charges/epik_inhibitors/output/Dasatinib/Dasatinib-input.mol2

> <i_m_source_file_index>
1

> <r_epik_Ionization_Penalty>
  9.7932

> <r_epik_Ionization_Penalty_Charging>
  9.7919

> <r_epik_Ionization_Penalty_Neutral>
  0.0013

> <r_epik_State_Penalty>
 10.2806

> <i_epik_Tot_Q>
2

$$$$
~{N}-(2-chloro-6-methyl-phenyl)-2-[[6-[4-(2-hydroxyethyl)piperazin-1-yl]-2-methyl-pyrimidin-4-yl]amino]thiazole-5-carboxamide
                    3D
 Structure written by MMmdl.
 59 62  0  0  1  0            999 V2000
    2.8907    1.0686    8.3231 C   0  0  0  0  0  0
    3.9716    1.9240    8.3671 C   0  0  0  0  0  0
    4.5688    2.1785    6.7797 S   0  0  0  0  0  0
    3.3443    1.1372    6.1785 C   0  0  0  0  0  0
    2.5292    0.6167    7.0689 N   0  0  0  0  0  0
    3.2677    0.8917    4.7930 N   0  0  0  0  0  0
    2.3953    0.1017    4.0049 C   0  0  0  0  0  0
    2.6088    0.0865    2.6416 C   0  0  0  0  0  0
    1.7378   -0.6945    1.9097 C   0  0  0  0  0  0
    0.7323   -1.4093    2.4557 N   0  0  0  0  0  0
    0.6272   -1.3114    3.7947 C   0  0  0  0  0  0
    1.4099   -0.5870    4.6172 N   0  0  0  0  0  0
   -0.4730   -2.0876    4.4350 C   0  0  0  0  0  0
    1.9202   -0.7370    0.5229 N   0  0  0  0  0  0
    1.5401   -1.9656   -0.1856 C   0  0  0  0  0  0
    2.2593   -2.0522   -1.5337 C   0  0  0  0  0  0
    2.0345   -0.8389   -2.3294 N   0  0  0  0  0  0
    2.5425    0.3334   -1.6066 C   0  0  0  0  0  0
    1.8337    0.4994   -0.2601 C   0  0  0  0  0  0
    2.6805   -0.9558   -3.6363 C   0  0  0  0  0  0
    1.8199   -1.7900   -4.5774 C   0  0  0  0  0  0
    2.4681   -1.8890   -5.8391 O   0  0  0  0  0  0
    4.5929    2.5617    9.4787 C   0  0  0  0  0  0
    5.5829    3.3240    9.3611 O   0  0  0  0  0  0
    4.0059    2.3219   10.7453 N   0  0  0  0  0  0
    4.3657    2.8321   12.0182 C   0  0  0  0  0  0
    3.4392    3.5823   12.7424 C   0  0  0  0  0  0
    3.7802    4.0904   13.9959 C   0  0  0  0  0  0
    5.0479    3.8482   14.5251 C   0  0  0  0  0  0
    5.9744    3.0981   13.8009 C   0  0  0  0  0  0
    5.6333    2.5900   12.5474 C   0  0  0  0  0  0
    6.8140    1.6665   11.6874 Cl  0  0  0  0  0  0
    2.0729    3.8598   12.2035 C   0  0  0  0  0  0
    2.3232    0.7378    9.1833 H   0  0  0  0  0  0
    3.3354    0.5938    2.1783 H   0  0  0  0  0  0
   -1.0352   -2.6324    3.6623 H   0  0  0  0  0  0
   -1.1487   -1.3986    4.9629 H   0  0  0  0  0  0
   -0.0467   -2.8045    5.1523 H   0  0  0  0  0  0
    0.4525   -1.9611   -0.3498 H   0  0  0  0  0  0
    1.8140   -2.8334    0.4325 H   0  0  0  0  0  0
    3.3401   -2.1684   -1.3658 H   0  0  0  0  0  0
    1.8804   -2.9180   -2.0965 H   0  0  0  0  0  0
    3.6206    0.2130   -1.4244 H   0  0  0  0  0  0
    2.3712    1.2380   -2.2086 H   0  0  0  0  0  0
    2.3084    1.3144    0.3061 H   0  0  0  0  0  0
    0.7741    0.7403   -0.4308 H   0  0  0  0  0  0
    2.8181    0.0465   -4.0682 H   0  0  0  0  0  0
    3.6602   -1.4420   -3.5188 H   0  0  0  0  0  0
    1.6818   -2.7956   -4.1533 H   0  0  0  0  0  0
    0.8396   -1.3071   -4.7027 H   0  0  0  0  0  0
    1.9982   -2.4564   -6.6559 H   0  0  0  0  0  0
    3.0659    4.6764   14.5681 H   0  0  0  0  0  0
    5.3134    4.2437   15.5011 H   0  0  0  0  0  0
    6.9580    2.9189   14.2278 H   0  0  0  0  0  0
    1.5083    4.4636   12.9292 H   0  0  0  0  0  0
    1.5473    2.9093   12.0297 H   0  0  0  0  0  0
    2.1577    4.4108   11.2552 H   0  0  0  0  0  0
    1.2197   -0.5892    5.7006 H   0  0  0  0  0  0
    3.1384    1.6509   10.8314 H   0  0  0  0  0  0
  1  5  1  0  0  0
  1  2  2  0  0  0
  1 34  1  0  0  0
  2  3  1  0  0  0
  2 23  1  0  0  0
  3  4  1  0  0  0
  4  5  2  0  0  0
  4  6  1  0  0  0
  6  7  2  0  0  0
  7 12  1  0  0  0
  7  8  1  0  0  0
  8 35  1  0  0  0
  8  9  2  0  0  0
  9 14  1  0  0  0
  9 10  1  0  0  0
 10 11  2  0  0  0
 11 13  1  0  0  0
 11 12  1  0  0  0
 12 58  1  0  0  0
 13 36  1  0  0  0
 13 37  1  0  0  0
 13 38  1  0  0  0
 14 19  1  0  0  0
 14 15  1  0  0  0
 15 16  1  0  0  0
 15 39  1  0  0  0
 15 40  1  0  0  0
 16 17  1  0  0  0
 16 41  1  0  0  0
 16 42  1  0  0  0
 17 18  1  0  0  0
 17 20  1  0  0  0
 18 19  1  0  0  0
 18 43  1  0  0  0
 18 44  1  0  0  0
 19 45  1  0  0  0
 19 46  1  0  0  0
 20 21  1  0  0  0
 20 47  1  0  0  0
 20 48  1  0  0  0
 21 22  1  0  0  0
 21 49  1  0  0  0
 21 50  1  0  0  0
 22 51  1  0  0  0
 23 24  2  0  0  0
 23 25  1  0  0  0
 25 26  1  0  0  0
 25 59  1  0  0  0
 26 31  2  0  0  0
 26 27  1  0  0  0
 27 28  2  0  0  0
 27 33  1  0  0  0
 28 29  1  0  0  0
 28 52  1  0  0  0
 29 30  2  0  0  0
 29 53  1  0  0  0
 30 31  1  0  0  0
 30 54  1  0  0  0
 31 32  1  0  0  0
 33 55  1  0  0  0
 33 56  1  0  0  0
 33 57  1  0  0  0
M  END
> <s_m_source_file>
/Users/andrea/Development/mcce-charges/epik_inhibitors/output/Dasatinib/Dasatinib-input.mol2

> <i_m_source_file_index>
1

> <r_lp_tautomer_probability>
1.57089587398604e-08

> <r_epik_Ionization_Penalty>
  4.3663

> <r_epik_Ionization_Penalty_Charging>
  2.8427

> <r_epik_Ionization_Penalty_Neutral>
  1.5237

> <r_epik_State_Penalty>
 10.7427

> <i_epik_Tot_Q>
0

$$$$
~{N}-(2-chloro-6-methyl-phenyl)-2-[[6-[4-(2-hydroxyethyl)piperazin-1-yl]-2-methyl-pyrimidin-4-yl]amino]thiazole-5-carboxamide
                    3D
 Structure written by MMmdl.
 59 62  0  0  1  0            999 V2000
    5.8998    2.7568    3.3003 C   0  0  0  0  0  0
    6.2568    3.2033    4.5553 C   0  0  0  0  0  0
    5.1996    2.5322    5.7270 S   0  0  0  0  0  0
    4.3676    1.7114    4.4704 C   0  0  0  0  0  0
    4.8169    1.9008    3.2496 N   0  0  0  0  0  0
    3.2677    0.8917    4.7930 N   0  0  0  0  0  0
    2.3953    0.1017    4.0049 C   0  0  0  0  0  0
    2.6088    0.0865    2.6416 C   0  0  0  0  0  0
    1.7378   -0.6945    1.9097 C   0  0  0  0  0  0
    0.7323   -1.4093    2.4557 N   0  0  0  0  0  0
    0.6272   -1.3114    3.7947 C   0  0  0  0  0  0
    1.4099   -0.5870    4.6172 N   0  0  0  0  0  0
   -0.4730   -2.0876    4.4350 C   0  0  0  0  0  0
    1.9202   -0.7370    0.5229 N   0  0  0  0  0  0
    1.5401   -1.9656   -0.1856 C   0  0  0  0  0  0
    2.2593   -2.0522   -1.5337 C   0  0  0  0  0  0
    2.0345   -0.8389   -2.3294 N   0  0  0  0  0  0
    2.5425    0.3334   -1.6066 C   0  0  0  0  0  0
    1.8337    0.4994   -0.2601 C   0  0  0  0  0  0
    2.6805   -0.9558   -3.6363 C   0  0  0  0  0  0
    1.8199   -1.7900   -4.5774 C   0  0  0  0  0  0
    2.4681   -1.8890   -5.8391 O   0  0  0  0  0  0
    7.3069    4.0790    4.9537 C   0  0  0  0  0  0
    7.5111    4.3981    6.1502 O   0  0  0  0  0  0
    8.1520    4.5526    3.9202 N   0  0  0  0  0  0
    9.2881    5.3969    3.9989 C   0  0  0  0  0  0
   10.5234    4.9263    3.5536 C   0  0  0  0  0  0
   11.6494    5.7466    3.6254 C   0  0  0  0  0  0
   11.5399    7.0374    4.1425 C   0  0  0  0  0  0
   10.3045    7.5080    4.5878 C   0  0  0  0  0  0
    9.1786    6.6877    4.5159 C   0  0  0  0  0  0
    7.6698    7.3141    5.0795 Cl  0  0  0  0  0  0
   10.6745    3.5484    2.9945 C   0  0  0  0  0  0
    6.3991    3.0258    2.3785 H   0  0  0  0  0  0
    3.3354    0.5938    2.1783 H   0  0  0  0  0  0
   -1.0352   -2.6324    3.6623 H   0  0  0  0  0  0
   -1.1487   -1.3986    4.9629 H   0  0  0  0  0  0
   -0.0467   -2.8045    5.1523 H   0  0  0  0  0  0
    0.4525   -1.9611   -0.3498 H   0  0  0  0  0  0
    1.8140   -2.8334    0.4325 H   0  0  0  0  0  0
    3.3401   -2.1684   -1.3658 H   0  0  0  0  0  0
    1.8804   -2.9180   -2.0965 H   0  0  0  0  0  0
    3.6206    0.2130   -1.4244 H   0  0  0  0  0  0
    2.3712    1.2380   -2.2086 H   0  0  0  0  0  0
    2.3084    1.3144    0.3061 H   0  0  0  0  0  0
    0.7741    0.7403   -0.4308 H   0  0  0  0  0  0
    2.8181    0.0465   -4.0682 H   0  0  0  0  0  0
    3.6602   -1.4420   -3.5188 H   0  0  0  0  0  0
    1.6818   -2.7956   -4.1533 H   0  0  0  0  0  0
    0.8396   -1.3071   -4.7027 H   0  0  0  0  0  0
    1.9982   -2.4564   -6.6559 H   0  0  0  0  0  0
   12.6166    5.3895    3.2816 H   0  0  0  0  0  0
   12.4165    7.6762    4.1983 H   0  0  0  0  0  0
   10.2367    8.5164    4.9882 H   0  0  0  0  0  0
   11.7229    3.3827    2.7060 H   0  0  0  0  0  0
   10.0291    3.4386    2.1106 H   0  0  0  0  0  0
   10.3825    2.8099    3.7557 H   0  0  0  0  0  0
    1.2197   -0.5892    5.7006 H   0  0  0  0  0  0
    7.9593    4.2636    2.8764 H   0  0  0  0  0  0
  1  5  1  0  0  0
  1  2  2  0  0  0
  1 34  1  0  0  0
  2  3  1  0  0  0
  2 23  1  0  0  0
  3  4  1  0  0  0
  4  5  2  0  0  0
  4  6  1  0  0  0
  6  7  2  0  0  0
  7 12  1  0  0  0
  7  8  1  0  0  0
  8 35  1  0  0  0
  8  9  2  0  0  0
  9 14  1  0  0  0
  9 10  1  0  0  0
 10 11  2  0  0  0
 11 13  1  0  0  0
 11 12  1  0  0  0
 12 58  1  0  0  0
 13 36  1  0  0  0
 13 37  1  0  0  0
 13 38  1  0  0  0
 14 19  1  0  0  0
 14 15  1  0  0  0
 15 16  1  0  0  0
 15 39  1  0  0  0
 15 40  1  0  0  0
 16 17  1  0  0  0
 16 41  1  0  0  0
 16 42  1  0  0  0
 17 18  1  0  0  0
 17 20  1  0  0  0
 18 19  1  0  0  0
 18 43  1  0  0  0
 18 44  1  0  0  0
 19 45  1  0  0  0
 19 46  1  0  0  0
 20 21  1  0  0  0
 20 47  1  0  0  0
 20 48  1  0  0  0
 21 22  1  0  0  0
 21 49  1  0  0  0
 21 50  1  0  0  0
 22 51  1  0  0  0
 23 24  2  0  0  0
 23 25  1  0  0  0
 25 26  1  0  0  0
 25 59  1  0  0  0
 26 31  2  0  0  0
 26 27  1  0  0  0
 27 28  2  0  0  0
 27 33  1  0  0  0
 28 29  1  0  0  0
 28 52  1  0  0  0
 29 30  2  0  0  0
 29 53  1  0  0  0
 30 31  1  0  0  0
 30 54  1  0  0  0
 31 32  1  0  0  0
 33 55  1  0  0  0
 33 56  1  0  0  0
 33 57  1  0  0  0
M  END
> <s_m_source_file>
/Users/andrea/Development/mcce-charges/epik_inhibitors/output/Dasatinib/Dasatinib-input.mol2

> <i_m_source_file_index>
1

> <r_lp_tautomer_probability>
1.57089587398604e-08

> <r_epik_Ionization_Penalty>
  4.3663

> <r_epik_Ionization_Penalty_Charging>
  2.8427

> <r_epik_Ionization_Penalty_Neutral>
  1.5237

> <r_epik_State_Penalty>
 10.9361

> <i_epik_Tot_Q>
0

$$$$
~{N}-(2-chloro-6-methyl-phenyl)-2-[[6-[4-(2-hydroxyethyl)piperazin-1-yl]-2-methyl-pyrimidin-4-yl]amino]thiazole-5-carboxamide
                    3D
 Structure written by MMmdl.
 60 63  0  0  1  0            999 V2000
    2.8905    1.0688    8.3231 C   0  0  0  0  0  0
    3.9713    1.9243    8.3671 C   0  0  0  0  0  0
    4.5685    2.1789    6.7797 S   0  0  0  0  0  0
    3.3441    1.1375    6.1785 C   0  0  0  0  0  0
    2.5291    0.6169    7.0689 N   0  0  0  0  0  0
    3.2675    0.8919    4.7930 N   0  0  0  0  0  0
    2.3952    0.1019    4.0049 C   0  0  0  0  0  0
    2.6085    0.0868    2.6416 C   0  0  0  0  0  0
    1.7377   -0.6944    1.9097 C   0  0  0  0  0  0
    0.7328   -1.4100    2.4558 N   0  3  0  0  0  0
    0.6284   -1.3129    3.7949 C   0  0  0  0  0  0
    1.4110   -0.5885    4.6174 N   0  0  0  0  0  0
   -0.4708   -2.0904    4.4354 C   0  0  0  0  0  0
    1.9200   -0.7367    0.5229 N   0  0  0  0  0  0
    1.5400   -1.9653   -0.1857 C   0  0  0  0  0  0
    2.2590   -2.0516   -1.5339 C   0  0  0  0  0  0
    2.0340   -0.8382   -2.3295 N   0  3  0  0  0  0
    2.5419    0.3340   -1.6066 C   0  0  0  0  0  0
    1.8332    0.4998   -0.2600 C   0  0  0  0  0  0
    2.6798   -0.9548   -3.6364 C   0  0  0  0  0  0
    1.8192   -1.7891   -4.5775 C   0  0  0  0  0  0
    2.4673   -1.8878   -5.8393 O   0  5  0  0  0  0
    4.5926    2.5621    9.4786 C   0  0  0  0  0  0
    5.5825    3.3245    9.3610 O   0  0  0  0  0  0
    4.0056    2.3222   10.7453 N   0  0  0  0  0  0
    4.3654    2.8325   12.0181 C   0  0  0  0  0  0
    3.4388    3.5826   12.7423 C   0  0  0  0  0  0
    3.7798    4.0907   13.9958 C   0  0  0  0  0  0
    5.0475    3.8487   14.5250 C   0  0  0  0  0  0
    5.9741    3.0986   13.8008 C   0  0  0  0  0  0
    5.6330    2.5905   12.5473 C   0  0  0  0  0  0
    6.8138    1.6671   11.6873 Cl  0  0  0  0  0  0
    2.0725    3.8600   12.2035 C   0  0  0  0  0  0
    2.4208    0.8127    9.1680 H   0  0  0  0  0  0
    4.0766    1.4626    4.3138 H   0  0  0  0  0  0
    3.3562    0.6206    2.2466 H   0  0  0  0  0  0
   -0.4492   -1.9280    5.5231 H   0  0  0  0  0  0
   -0.3354   -3.1610    4.2218 H   0  0  0  0  0  0
   -1.4387   -1.7559    4.0339 H   0  0  0  0  0  0
    1.8155   -2.8395    0.4224 H   0  0  0  0  0  0
    0.4538   -1.9673   -0.3596 H   0  0  0  0  0  0
    3.3399   -2.1677   -1.3662 H   0  0  0  0  0  0
    1.8801   -2.9174   -2.0968 H   0  0  0  0  0  0
    3.6200    0.2138   -1.4246 H   0  0  0  0  0  0
    2.3703    1.2387   -2.2084 H   0  0  0  0  0  0
    0.7764    0.7459   -0.4408 H   0  0  0  0  0  0
    2.3107    1.3201    0.2960 H   0  0  0  0  0  0
    2.8172    0.0475   -4.0682 H   0  0  0  0  0  0
    3.6596   -1.4409   -3.5192 H   0  0  0  0  0  0
    1.6813   -2.7947   -4.1536 H   0  0  0  0  0  0
    0.8388   -1.3063   -4.7027 H   0  0  0  0  0  0
    3.1382    1.6512   10.8313 H   0  0  0  0  0  0
    3.0654    4.6767   14.5680 H   0  0  0  0  0  0
    5.3130    4.2442   15.5010 H   0  0  0  0  0  0
    6.9577    2.9195   14.2277 H   0  0  0  0  0  0
    1.5078    4.4638   12.9292 H   0  0  0  0  0  0
    1.5470    2.9094   12.0296 H   0  0  0  0  0  0
    2.1572    4.4109   11.2552 H   0  0  0  0  0  0
    0.9536   -0.7147   -2.4953 H   0  0  0  0  0  0
    0.0743   -2.0127    1.8130 H   0  0  0  0  0  0
  1  5  1  0  0  0
  1  2  2  0  0  0
  1 34  1  0  0  0
  2  3  1  0  0  0
  2 23  1  0  0  0
  3  4  1  0  0  0
  4  5  2  0  0  0
  4  6  1  0  0  0
  6  7  1  0  0  0
  6 35  1  0  0  0
  7  8  2  0  0  0
  7 12  1  0  0  0
  8 36  1  0  0  0
  8  9  1  0  0  0
  9 14  1  0  0  0
  9 10  2  0  0  0
 10 60  1  0  0  0
 10 11  1  0  0  0
 11 13  1  0  0  0
 11 12  2  0  0  0
 13 37  1  0  0  0
 13 38  1  0  0  0
 13 39  1  0  0  0
 14 19  1  0  0  0
 14 15  1  0  0  0
 15 16  1  0  0  0
 15 40  1  0  0  0
 15 41  1  0  0  0
 16 17  1  0  0  0
 16 42  1  0  0  0
 16 43  1  0  0  0
 17 18  1  0  0  0
 17 20  1  0  0  0
 17 59  1  0  0  0
 18 19  1  0  0  0
 18 44  1  0  0  0
 18 45  1  0  0  0
 19 46  1  0  0  0
 19 47  1  0  0  0
 20 21  1  0  0  0
 20 48  1  0  0  0
 20 49  1  0  0  0
 21 22  1  0  0  0
 21 50  1  0  0  0
 21 51  1  0  0  0
 23 24  2  0  0  0
 23 25  1  0  0  0
 25 26  1  0  0  0
 25 52  1  0  0  0
 26 31  2  0  0  0
 26 27  1  0  0  0
 27 28  2  0  0  0
 27 33  1  0  0  0
 28 29  1  0  0  0
 28 53  1  0  0  0
 29 30  2  0  0  0
 29 54  1  0  0  0
 30 31  1  0  0  0
 30 55  1  0  0  0
 31 32  1  0  0  0
 33 56  1  0  0  0
 33 57  1  0  0  0
 33 58  1  0  0  0
M  CHG  3  10   1  17   1  22  -1
M  END
> <s_m_source_file>
/Users/andrea/Development/mcce-charges/epik_inhibitors/output/Dasatinib/Dasatinib-input.mol2

> <i_m_source_file_index>
1

> <r_epik_Ionization_Penalty>
 10.1650

> <r_epik_Ionization_Penalty_Charging>
 10.1642

> <r_epik_Ionization_Penalty_Neutral>
  0.0007

> <r_epik_State_Penalty>
 11.5837

> <i_epik_Tot_Q>
1

$$$$
