~{N}-(2-chloro-6-methyl-phenyl)-2-[[6-[4-(2-hydroxyethyl)piperazin-1-yl]-2-methyl-pyrimidin-4-yl]amino]thiazole-5-carboxamide
                    3D
 Structure written by MMmdl.
 60 63  0  0  1  0            999 V2000
    2.8905    1.0688    8.3231 C   0  0  0  0  0  0
    3.9713    1.9243    8.3671 C   0  0  0  0  0  0
    4.5685    2.1789    6.7797 S   0  0  0  0  0  0
    3.3441    1.1375    6.1785 C   0  0  0  0  0  0
    2.5291    0.6169    7.0689 N   0  0  0  0  0  0
    3.2675    0.8919    4.7930 N   0  0  0  0  0  0
    2.3952    0.1019    4.0049 C   0  0  0  0  0  0
    2.6085    0.0868    2.6416 C   0  0  0  0  0  0
    1.7377   -0.6944    1.9097 C   0  0  0  0  0  0
    0.7329   -1.4101    2.4558 N   0  3  0  0  0  0
    0.6285   -1.3130    3.7949 C   0  0  0  0  0  0
    1.4110   -0.5885    4.6174 N   0  0  0  0  0  0
   -0.4709   -2.0903    4.4354 C   0  0  0  0  0  0
    1.9200   -0.7367    0.5229 N   0  0  0  0  0  0
    1.5400   -1.9653   -0.1857 C   0  0  0  0  0  0
    2.2590   -2.0516   -1.5339 C   0  0  0  0  0  0
    2.0340   -0.8383   -2.3295 N   0  0  0  0  0  0
    2.5419    0.3340   -1.6066 C   0  0  0  0  0  0
    1.8332    0.4998   -0.2600 C   0  0  0  0  0  0
    2.6799   -0.9549   -3.6364 C   0  0  0  0  0  0
    1.8193   -1.7892   -4.5775 C   0  0  0  0  0  0
    2.4674   -1.8879   -5.8393 O   0  0  0  0  0  0
    4.5926    2.5621    9.4786 C   0  0  0  0  0  0
    5.5825    3.3245    9.3610 O   0  0  0  0  0  0
    4.0056    2.3222   10.7453 N   0  0  0  0  0  0
    4.3654    2.8325   12.0181 C   0  0  0  0  0  0
    3.4388    3.5826   12.7423 C   0  0  0  0  0  0
    3.7798    4.0907   13.9958 C   0  0  0  0  0  0
    5.0475    3.8487   14.5250 C   0  0  0  0  0  0
    5.9741    3.0986   13.8008 C   0  0  0  0  0  0
    5.6330    2.5905   12.5473 C   0  0  0  0  0  0
    6.8138    1.6671   11.6873 Cl  0  0  0  0  0  0
    2.0725    3.8600   12.2035 C   0  0  0  0  0  0
    2.3231    0.7380    9.1833 H   0  0  0  0  0  0
    3.9878    1.3656    4.1098 H   0  0  0  0  0  0
    3.4079    0.6519    2.1761 H   0  0  0  0  0  0
   -0.4493   -1.9279    5.5231 H   0  0  0  0  0  0
   -0.3357   -3.1608    4.2217 H   0  0  0  0  0  0
   -1.4387   -1.7556    4.0338 H   0  0  0  0  0  0
    1.8156   -2.8395    0.4225 H   0  0  0  0  0  0
    0.4538   -1.9673   -0.3596 H   0  0  0  0  0  0
    3.3399   -2.1677   -1.3662 H   0  0  0  0  0  0
    1.8802   -2.9175   -2.0967 H   0  0  0  0  0  0
    3.6200    0.2137   -1.4246 H   0  0  0  0  0  0
    2.3703    1.2386   -2.2085 H   0  0  0  0  0  0
    0.7764    0.7459   -0.4408 H   0  0  0  0  0  0
    2.3107    1.3201    0.2960 H   0  0  0  0  0  0
    2.8172    0.0474   -4.0682 H   0  0  0  0  0  0
    3.6597   -1.4410   -3.5191 H   0  0  0  0  0  0
    1.6813   -2.7948   -4.1536 H   0  0  0  0  0  0
    0.8389   -1.3064   -4.7027 H   0  0  0  0  0  0
    1.9974   -2.4553   -6.6561 H   0  0  0  0  0  0
    3.1382    1.6512   10.8313 H   0  0  0  0  0  0
    3.0654    4.6767   14.5680 H   0  0  0  0  0  0
    5.3130    4.2442   15.5010 H   0  0  0  0  0  0
    6.9577    2.9195   14.2277 H   0  0  0  0  0  0
    1.5078    4.4638   12.9292 H   0  0  0  0  0  0
    1.5470    2.9094   12.0296 H   0  0  0  0  0  0
    2.1572    4.4109   11.2552 H   0  0  0  0  0  0
    0.0745   -2.0129    1.8131 H   0  0  0  0  0  0
  1  5  1  0  0  0
  1  2  2  0  0  0
  1 34  1  0  0  0
  2  3  1  0  0  0
  2 23  1  0  0  0
  3  4  1  0  0  0
  4  5  2  0  0  0
  4  6  1  0  0  0
  6  7  1  0  0  0
  6 35  1  0  0  0
  7 12  2  0  0  0
  7  8  1  0  0  0
  8  9  2  0  0  0
  8 36  1  0  0  0
  9 10  1  0  0  0
  9 14  1  0  0  0
 10 11  2  0  0  0
 10 60  1  0  0  0
 11 12  1  0  0  0
 11 13  1  0  0  0
 13 37  1  0  0  0
 13 38  1  0  0  0
 13 39  1  0  0  0
 14 19  1  0  0  0
 14 15  1  0  0  0
 15 16  1  0  0  0
 15 40  1  0  0  0
 15 41  1  0  0  0
 16 17  1  0  0  0
 16 42  1  0  0  0
 16 43  1  0  0  0
 17 18  1  0  0  0
 17 20  1  0  0  0
 18 19  1  0  0  0
 18 44  1  0  0  0
 18 45  1  0  0  0
 19 46  1  0  0  0
 19 47  1  0  0  0
 20 21  1  0  0  0
 20 48  1  0  0  0
 20 49  1  0  0  0
 21 22  1  0  0  0
 21 50  1  0  0  0
 21 51  1  0  0  0
 22 52  1  0  0  0
 23 24  2  0  0  0
 23 25  1  0  0  0
 25 26  1  0  0  0
 25 53  1  0  0  0
 26 31  2  0  0  0
 26 27  1  0  0  0
 27 28  2  0  0  0
 27 33  1  0  0  0
 28 29  1  0  0  0
 28 54  1  0  0  0
 29 30  2  0  0  0
 29 55  1  0  0  0
 30 31  1  0  0  0
 30 56  1  0  0  0
 31 32  1  0  0  0
 33 57  1  0  0  0
 33 58  1  0  0  0
 33 59  1  0  0  0
M  CHG  1  10   1
M  END
> <s_m_source_file>
/Users/choderaj/github/choderalab/mcce-charges/mcce-charges.jchodera/epik_inhibitors/output/Dasatinib/Dasatinib-input.mol2

> <i_m_source_file_index>
1

> <r_lp_tautomer_probability>
0.999279695788307

> <r_epik_Ionization_Penalty>
  2.5213

> <r_epik_Ionization_Penalty_Charging>
  2.3253

> <r_epik_Ionization_Penalty_Neutral>
  0.1960

> <r_epik_State_Penalty>
  0.3395

> <i_epik_Tot_Q>
1

$$$$
~{N}-(2-chloro-6-methyl-phenyl)-2-[[6-[4-(2-hydroxyethyl)piperazin-1-yl]-2-methyl-pyrimidin-4-yl]amino]thiazole-5-carboxamide
                    3D
 Structure written by MMmdl.
 60 63  0  0  1  0            999 V2000
    2.8905    1.0688    8.3231 C   0  0  0  0  0  0
    3.9713    1.9243    8.3671 C   0  0  0  0  0  0
    4.5685    2.1789    6.7797 S   0  0  0  0  0  0
    3.3441    1.1375    6.1785 C   0  0  0  0  0  0
    2.5291    0.6169    7.0689 N   0  0  0  0  0  0
    3.2675    0.8919    4.7930 N   0  0  0  0  0  0
    2.3952    0.1019    4.0049 C   0  0  0  0  0  0
    2.6085    0.0868    2.6416 C   0  0  0  0  0  0
    1.7377   -0.6944    1.9097 C   0  0  0  0  0  0
    0.7329   -1.4101    2.4558 N   0  0  0  0  0  0
    0.6285   -1.3130    3.7949 C   0  0  0  0  0  0
    1.4110   -0.5885    4.6174 N   0  0  0  0  0  0
   -0.4709   -2.0903    4.4354 C   0  0  0  0  0  0
    1.9200   -0.7367    0.5229 N   0  0  0  0  0  0
    1.5400   -1.9653   -0.1857 C   0  0  0  0  0  0
    2.2590   -2.0516   -1.5339 C   0  0  0  0  0  0
    2.0340   -0.8383   -2.3295 N   0  3  0  0  0  0
    2.5419    0.3340   -1.6066 C   0  0  0  0  0  0
    1.8332    0.4998   -0.2600 C   0  0  0  0  0  0
    2.6799   -0.9549   -3.6364 C   0  0  0  0  0  0
    1.8193   -1.7892   -4.5775 C   0  0  0  0  0  0
    2.4674   -1.8879   -5.8393 O   0  0  0  0  0  0
    4.5926    2.5621    9.4786 C   0  0  0  0  0  0
    5.5825    3.3245    9.3610 O   0  0  0  0  0  0
    4.0056    2.3222   10.7453 N   0  0  0  0  0  0
    4.3654    2.8325   12.0181 C   0  0  0  0  0  0
    3.4388    3.5826   12.7423 C   0  0  0  0  0  0
    3.7798    4.0907   13.9958 C   0  0  0  0  0  0
    5.0475    3.8487   14.5250 C   0  0  0  0  0  0
    5.9741    3.0986   13.8008 C   0  0  0  0  0  0
    5.6330    2.5905   12.5473 C   0  0  0  0  0  0
    6.8138    1.6671   11.6873 Cl  0  0  0  0  0  0
    2.0725    3.8600   12.2035 C   0  0  0  0  0  0
    2.3231    0.7380    9.1833 H   0  0  0  0  0  0
    3.9878    1.3656    4.1098 H   0  0  0  0  0  0
    3.4079    0.6519    2.1761 H   0  0  0  0  0  0
   -0.4493   -1.9279    5.5231 H   0  0  0  0  0  0
   -0.3357   -3.1608    4.2217 H   0  0  0  0  0  0
   -1.4387   -1.7556    4.0338 H   0  0  0  0  0  0
    1.8156   -2.8395    0.4225 H   0  0  0  0  0  0
    0.4538   -1.9673   -0.3596 H   0  0  0  0  0  0
    3.3399   -2.1677   -1.3662 H   0  0  0  0  0  0
    1.8802   -2.9175   -2.0967 H   0  0  0  0  0  0
    3.6200    0.2137   -1.4246 H   0  0  0  0  0  0
    2.3703    1.2386   -2.2085 H   0  0  0  0  0  0
    0.7764    0.7459   -0.4408 H   0  0  0  0  0  0
    2.3107    1.3201    0.2960 H   0  0  0  0  0  0
    2.8172    0.0474   -4.0682 H   0  0  0  0  0  0
    3.6597   -1.4410   -3.5191 H   0  0  0  0  0  0
    1.6813   -2.7948   -4.1536 H   0  0  0  0  0  0
    0.8389   -1.3064   -4.7027 H   0  0  0  0  0  0
    1.9974   -2.4553   -6.6561 H   0  0  0  0  0  0
    3.1382    1.6512   10.8313 H   0  0  0  0  0  0
    3.0654    4.6767   14.5680 H   0  0  0  0  0  0
    5.3130    4.2442   15.5010 H   0  0  0  0  0  0
    6.9577    2.9195   14.2277 H   0  0  0  0  0  0
    1.5078    4.4638   12.9292 H   0  0  0  0  0  0
    1.5470    2.9094   12.0296 H   0  0  0  0  0  0
    2.1572    4.4109   11.2552 H   0  0  0  0  0  0
    0.9536   -0.7148   -2.4953 H   0  0  0  0  0  0
  1  5  1  0  0  0
  1  2  2  0  0  0
  1 34  1  0  0  0
  2  3  1  0  0  0
  2 23  1  0  0  0
  3  4  1  0  0  0
  4  5  2  0  0  0
  4  6  1  0  0  0
  6  7  1  0  0  0
  6 35  1  0  0  0
  7 12  2  0  0  0
  7  8  1  0  0  0
  8  9  2  0  0  0
  8 36  1  0  0  0
  9 10  1  0  0  0
  9 14  1  0  0  0
 10 11  2  0  0  0
 11 12  1  0  0  0
 11 13  1  0  0  0
 13 37  1  0  0  0
 13 38  1  0  0  0
 13 39  1  0  0  0
 14 19  1  0  0  0
 14 15  1  0  0  0
 15 16  1  0  0  0
 15 40  1  0  0  0
 15 41  1  0  0  0
 16 17  1  0  0  0
 16 42  1  0  0  0
 16 43  1  0  0  0
 17 18  1  0  0  0
 17 20  1  0  0  0
 17 60  1  0  0  0
 18 19  1  0  0  0
 18 44  1  0  0  0
 18 45  1  0  0  0
 19 46  1  0  0  0
 19 47  1  0  0  0
 20 21  1  0  0  0
 20 48  1  0  0  0
 20 49  1  0  0  0
 21 22  1  0  0  0
 21 50  1  0  0  0
 21 51  1  0  0  0
 22 52  1  0  0  0
 23 24  2  0  0  0
 23 25  1  0  0  0
 25 26  1  0  0  0
 25 53  1  0  0  0
 26 31  2  0  0  0
 26 27  1  0  0  0
 27 28  2  0  0  0
 27 33  1  0  0  0
 28 29  1  0  0  0
 28 54  1  0  0  0
 29 30  2  0  0  0
 29 55  1  0  0  0
 30 31  1  0  0  0
 30 56  1  0  0  0
 31 32  1  0  0  0
 33 57  1  0  0  0
 33 58  1  0  0  0
 33 59  1  0  0  0
M  CHG  1  17   1
M  END
> <s_m_source_file>
/Users/choderaj/github/choderalab/mcce-charges/mcce-charges.jchodera/epik_inhibitors/output/Dasatinib/Dasatinib-input.mol2

> <i_m_source_file_index>
1

> <r_epik_Ionization_Penalty>
  0.8901

> <r_epik_Ionization_Penalty_Charging>
  0.7526

> <r_epik_Ionization_Penalty_Neutral>
  0.1375

> <r_epik_State_Penalty>
  0.9206

> <i_epik_Tot_Q>
1

$$$$
~{N}-(2-chloro-6-methyl-phenyl)-2-[[6-[4-(2-hydroxyethyl)piperazin-1-yl]-2-methyl-pyrimidin-4-yl]amino]thiazole-5-carboxamide
                    3D
 Structure written by MMmdl.
 59 62  0  0  1  0            999 V2000
    2.8905    1.0688    8.3231 C   0  0  0  0  0  0
    3.9713    1.9243    8.3671 C   0  0  0  0  0  0
    4.5685    2.1789    6.7797 S   0  0  0  0  0  0
    3.3441    1.1375    6.1785 C   0  0  0  0  0  0
    2.5291    0.6169    7.0689 N   0  0  0  0  0  0
    3.2675    0.8919    4.7930 N   0  0  0  0  0  0
    2.3952    0.1019    4.0049 C   0  0  0  0  0  0
    2.6085    0.0868    2.6416 C   0  0  0  0  0  0
    1.7377   -0.6944    1.9097 C   0  0  0  0  0  0
    0.7329   -1.4101    2.4558 N   0  0  0  0  0  0
    0.6285   -1.3130    3.7949 C   0  0  0  0  0  0
    1.4110   -0.5885    4.6174 N   0  0  0  0  0  0
   -0.4709   -2.0903    4.4354 C   0  0  0  0  0  0
    1.9200   -0.7367    0.5229 N   0  0  0  0  0  0
    1.5400   -1.9653   -0.1857 C   0  0  0  0  0  0
    2.2590   -2.0516   -1.5339 C   0  0  0  0  0  0
    2.0340   -0.8383   -2.3295 N   0  0  0  0  0  0
    2.5419    0.3340   -1.6066 C   0  0  0  0  0  0
    1.8332    0.4998   -0.2600 C   0  0  0  0  0  0
    2.6799   -0.9549   -3.6364 C   0  0  0  0  0  0
    1.8193   -1.7892   -4.5775 C   0  0  0  0  0  0
    2.4674   -1.8879   -5.8393 O   0  0  0  0  0  0
    4.5926    2.5621    9.4786 C   0  0  0  0  0  0
    5.5825    3.3245    9.3610 O   0  0  0  0  0  0
    4.0056    2.3222   10.7453 N   0  0  0  0  0  0
    4.3654    2.8325   12.0181 C   0  0  0  0  0  0
    3.4388    3.5826   12.7423 C   0  0  0  0  0  0
    3.7798    4.0907   13.9958 C   0  0  0  0  0  0
    5.0475    3.8487   14.5250 C   0  0  0  0  0  0
    5.9741    3.0986   13.8008 C   0  0  0  0  0  0
    5.6330    2.5905   12.5473 C   0  0  0  0  0  0
    6.8138    1.6671   11.6873 Cl  0  0  0  0  0  0
    2.0725    3.8600   12.2035 C   0  0  0  0  0  0
    2.3231    0.7380    9.1833 H   0  0  0  0  0  0
    3.9878    1.3656    4.1098 H   0  0  0  0  0  0
    3.4079    0.6519    2.1761 H   0  0  0  0  0  0
   -0.4493   -1.9279    5.5231 H   0  0  0  0  0  0
   -0.3357   -3.1608    4.2217 H   0  0  0  0  0  0
   -1.4387   -1.7556    4.0338 H   0  0  0  0  0  0
    1.8156   -2.8395    0.4225 H   0  0  0  0  0  0
    0.4538   -1.9673   -0.3596 H   0  0  0  0  0  0
    3.3399   -2.1677   -1.3662 H   0  0  0  0  0  0
    1.8802   -2.9175   -2.0967 H   0  0  0  0  0  0
    3.6200    0.2137   -1.4246 H   0  0  0  0  0  0
    2.3703    1.2386   -2.2085 H   0  0  0  0  0  0
    0.7764    0.7459   -0.4408 H   0  0  0  0  0  0
    2.3107    1.3201    0.2960 H   0  0  0  0  0  0
    2.8172    0.0474   -4.0682 H   0  0  0  0  0  0
    3.6597   -1.4410   -3.5191 H   0  0  0  0  0  0
    1.6813   -2.7948   -4.1536 H   0  0  0  0  0  0
    0.8389   -1.3064   -4.7027 H   0  0  0  0  0  0
    1.9974   -2.4553   -6.6561 H   0  0  0  0  0  0
    3.1382    1.6512   10.8313 H   0  0  0  0  0  0
    3.0654    4.6767   14.5680 H   0  0  0  0  0  0
    5.3130    4.2442   15.5010 H   0  0  0  0  0  0
    6.9577    2.9195   14.2277 H   0  0  0  0  0  0
    1.5078    4.4638   12.9292 H   0  0  0  0  0  0
    1.5470    2.9094   12.0296 H   0  0  0  0  0  0
    2.1572    4.4109   11.2552 H   0  0  0  0  0  0
  1  5  1  0  0  0
  1  2  2  0  0  0
  1 34  1  0  0  0
  2  3  1  0  0  0
  2 23  1  0  0  0
  3  4  1  0  0  0
  4  5  2  0  0  0
  4  6  1  0  0  0
  6  7  1  0  0  0
  6 35  1  0  0  0
  7 12  2  0  0  0
  7  8  1  0  0  0
  8  9  2  0  0  0
  8 36  1  0  0  0
  9 10  1  0  0  0
  9 14  1  0  0  0
 10 11  2  0  0  0
 11 12  1  0  0  0
 11 13  1  0  0  0
 13 37  1  0  0  0
 13 38  1  0  0  0
 13 39  1  0  0  0
 14 19  1  0  0  0
 14 15  1  0  0  0
 15 16  1  0  0  0
 15 40  1  0  0  0
 15 41  1  0  0  0
 16 17  1  0  0  0
 16 42  1  0  0  0
 16 43  1  0  0  0
 17 18  1  0  0  0
 17 20  1  0  0  0
 18 19  1  0  0  0
 18 44  1  0  0  0
 18 45  1  0  0  0
 19 46  1  0  0  0
 19 47  1  0  0  0
 20 21  1  0  0  0
 20 48  1  0  0  0
 20 49  1  0  0  0
 21 22  1  0  0  0
 21 50  1  0  0  0
 21 51  1  0  0  0
 22 52  1  0  0  0
 23 24  2  0  0  0
 23 25  1  0  0  0
 25 26  1  0  0  0
 25 53  1  0  0  0
 26 31  2  0  0  0
 26 27  1  0  0  0
 27 28  2  0  0  0
 27 33  1  0  0  0
 28 29  1  0  0  0
 28 54  1  0  0  0
 29 30  2  0  0  0
 29 55  1  0  0  0
 30 31  1  0  0  0
 30 56  1  0  0  0
 31 32  1  0  0  0
 33 57  1  0  0  0
 33 58  1  0  0  0
 33 59  1  0  0  0
M  END
> <s_m_source_file>
/Users/choderaj/github/choderalab/mcce-charges/mcce-charges.jchodera/epik_inhibitors/output/Dasatinib/Dasatinib-input.mol2

> <i_m_source_file_index>
1

> <r_lp_tautomer_probability>
0.989852503665826

> <r_epik_Ionization_Penalty>
  1.3806

> <r_epik_Ionization_Penalty_Charging>
  0.0000

> <r_epik_Ionization_Penalty_Neutral>
  1.3806

> <r_epik_State_Penalty>
  1.3230

> <i_epik_Tot_Q>
0

$$$$
~{N}-(2-chloro-6-methyl-phenyl)-2-[[6-[4-(2-hydroxyethyl)piperazin-1-yl]-2-methyl-pyrimidin-4-yl]amino]thiazole-5-carboxamide
                    3D
 Structure written by MMmdl.
 61 64  0  0  1  0            999 V2000
    2.8905    1.0688    8.3231 C   0  0  0  0  0  0
    3.9713    1.9243    8.3671 C   0  0  0  0  0  0
    4.5685    2.1789    6.7797 S   0  0  0  0  0  0
    3.3441    1.1375    6.1785 C   0  0  0  0  0  0
    2.5291    0.6169    7.0689 N   0  0  0  0  0  0
    3.2675    0.8919    4.7930 N   0  3  0  0  0  0
    2.3952    0.1019    4.0049 C   0  0  0  0  0  0
    2.6085    0.0868    2.6416 C   0  0  0  0  0  0
    1.7377   -0.6944    1.9097 C   0  0  0  0  0  0
    0.7329   -1.4101    2.4558 N   0  0  0  0  0  0
    0.6285   -1.3130    3.7949 C   0  0  0  0  0  0
    1.4110   -0.5885    4.6174 N   0  0  0  0  0  0
   -0.4709   -2.0903    4.4354 C   0  0  0  0  0  0
    1.9200   -0.7367    0.5229 N   0  0  0  0  0  0
    1.5400   -1.9653   -0.1857 C   0  0  0  0  0  0
    2.2590   -2.0516   -1.5339 C   0  0  0  0  0  0
    2.0340   -0.8383   -2.3295 N   0  3  0  0  0  0
    2.5419    0.3340   -1.6066 C   0  0  0  0  0  0
    1.8332    0.4998   -0.2600 C   0  0  0  0  0  0
    2.6799   -0.9549   -3.6364 C   0  0  0  0  0  0
    1.8193   -1.7892   -4.5775 C   0  0  0  0  0  0
    2.4674   -1.8879   -5.8393 O   0  0  0  0  0  0
    4.5926    2.5621    9.4786 C   0  0  0  0  0  0
    5.5825    3.3245    9.3610 O   0  0  0  0  0  0
    4.0056    2.3222   10.7453 N   0  0  0  0  0  0
    4.3654    2.8325   12.0181 C   0  0  0  0  0  0
    3.4388    3.5826   12.7423 C   0  0  0  0  0  0
    3.7798    4.0907   13.9958 C   0  0  0  0  0  0
    5.0475    3.8487   14.5250 C   0  0  0  0  0  0
    5.9741    3.0986   13.8008 C   0  0  0  0  0  0
    5.6330    2.5905   12.5473 C   0  0  0  0  0  0
    6.8138    1.6671   11.6873 Cl  0  0  0  0  0  0
    2.0725    3.8600   12.2035 C   0  0  0  0  0  0
    2.3231    0.7380    9.1833 H   0  0  0  0  0  0
    3.4079    0.6519    2.1761 H   0  0  0  0  0  0
   -0.4493   -1.9279    5.5231 H   0  0  0  0  0  0
   -0.3357   -3.1608    4.2217 H   0  0  0  0  0  0
   -1.4387   -1.7556    4.0338 H   0  0  0  0  0  0
    1.8156   -2.8395    0.4225 H   0  0  0  0  0  0
    0.4538   -1.9673   -0.3596 H   0  0  0  0  0  0
    3.3399   -2.1677   -1.3662 H   0  0  0  0  0  0
    1.8802   -2.9175   -2.0967 H   0  0  0  0  0  0
    3.6200    0.2137   -1.4246 H   0  0  0  0  0  0
    2.3703    1.2386   -2.2085 H   0  0  0  0  0  0
    0.7764    0.7459   -0.4408 H   0  0  0  0  0  0
    2.3107    1.3201    0.2960 H   0  0  0  0  0  0
    2.8172    0.0474   -4.0682 H   0  0  0  0  0  0
    3.6597   -1.4410   -3.5191 H   0  0  0  0  0  0
    1.6813   -2.7948   -4.1536 H   0  0  0  0  0  0
    0.8389   -1.3064   -4.7027 H   0  0  0  0  0  0
    1.9974   -2.4553   -6.6561 H   0  0  0  0  0  0
    3.1382    1.6512   10.8313 H   0  0  0  0  0  0
    3.0654    4.6767   14.5680 H   0  0  0  0  0  0
    5.3130    4.2442   15.5010 H   0  0  0  0  0  0
    6.9577    2.9195   14.2277 H   0  0  0  0  0  0
    1.5078    4.4638   12.9292 H   0  0  0  0  0  0
    1.5470    2.9094   12.0296 H   0  0  0  0  0  0
    2.1572    4.4109   11.2552 H   0  0  0  0  0  0
    0.9536   -0.7148   -2.4953 H   0  0  0  0  0  0
    0.0745   -2.0129    1.8131 H   0  0  0  0  0  0
    4.0766    1.4626    4.3138 H   0  0  0  0  0  0
  1  5  1  0  0  0
  1  2  2  0  0  0
  1 34  1  0  0  0
  2  3  1  0  0  0
  2 23  1  0  0  0
  3  4  1  0  0  0
  4  5  2  0  0  0
  4  6  1  0  0  0
  6  7  2  0  0  0
  6 61  1  0  0  0
  7 12  1  0  0  0
  7  8  1  0  0  0
  8  9  2  0  0  0
  8 35  1  0  0  0
  9 10  1  0  0  0
  9 14  1  0  0  0
 10 11  1  0  0  0
 10 60  1  0  0  0
 11 12  2  0  0  0
 11 13  1  0  0  0
 13 36  1  0  0  0
 13 37  1  0  0  0
 13 38  1  0  0  0
 14 19  1  0  0  0
 14 15  1  0  0  0
 15 16  1  0  0  0
 15 39  1  0  0  0
 15 40  1  0  0  0
 16 17  1  0  0  0
 16 41  1  0  0  0
 16 42  1  0  0  0
 17 18  1  0  0  0
 17 20  1  0  0  0
 17 59  1  0  0  0
 18 19  1  0  0  0
 18 43  1  0  0  0
 18 44  1  0  0  0
 19 45  1  0  0  0
 19 46  1  0  0  0
 20 21  1  0  0  0
 20 47  1  0  0  0
 20 48  1  0  0  0
 21 22  1  0  0  0
 21 49  1  0  0  0
 21 50  1  0  0  0
 22 51  1  0  0  0
 23 24  2  0  0  0
 23 25  1  0  0  0
 25 26  1  0  0  0
 25 52  1  0  0  0
 26 31  2  0  0  0
 26 27  1  0  0  0
 27 28  2  0  0  0
 27 33  1  0  0  0
 28 29  1  0  0  0
 28 53  1  0  0  0
 29 30  2  0  0  0
 29 54  1  0  0  0
 30 31  1  0  0  0
 30 55  1  0  0  0
 31 32  1  0  0  0
 33 56  1  0  0  0
 33 57  1  0  0  0
 33 58  1  0  0  0
M  CHG  2   6   1  17   1
M  END
> <s_m_source_file>
/Users/choderaj/github/choderalab/mcce-charges/mcce-charges.jchodera/epik_inhibitors/output/Dasatinib/Dasatinib-input.mol2

> <i_m_source_file_index>
1

> <r_epik_Ionization_Penalty>
  1.0697

> <r_epik_Ionization_Penalty_Charging>
  0.3479

> <r_epik_Ionization_Penalty_Neutral>
  0.7218

> <r_epik_State_Penalty>
  1.5335

> <i_epik_Tot_Q>
2

> <s_epik_Chemistry_Notes>
This compound has an imine and may undergo hydrolysis.

$$$$
~{N}-(2-chloro-6-methyl-phenyl)-2-[[6-[4-(2-hydroxyethyl)piperazin-1-yl]-2-methyl-pyrimidin-4-yl]amino]thiazole-5-carboxamide
                    3D
 Structure written by MMmdl.
 60 63  0  0  1  0            999 V2000
    2.8905    1.0688    8.3231 C   0  0  0  0  0  0
    3.9713    1.9243    8.3671 C   0  0  0  0  0  0
    4.5685    2.1789    6.7797 S   0  0  0  0  0  0
    3.3441    1.1375    6.1785 C   0  0  0  0  0  0
    2.5291    0.6169    7.0689 N   0  0  0  0  0  0
    3.2675    0.8919    4.7930 N   0  0  0  0  0  0
    2.3952    0.1019    4.0049 C   0  0  0  0  0  0
    2.6085    0.0868    2.6416 C   0  0  0  0  0  0
    1.7377   -0.6944    1.9097 C   0  0  0  0  0  0
    0.7329   -1.4101    2.4558 N   0  0  0  0  0  0
    0.6285   -1.3130    3.7949 C   0  0  0  0  0  0
    1.4110   -0.5885    4.6174 N   0  3  0  0  0  0
   -0.4709   -2.0903    4.4354 C   0  0  0  0  0  0
    1.9200   -0.7367    0.5229 N   0  0  0  0  0  0
    1.5400   -1.9653   -0.1857 C   0  0  0  0  0  0
    2.2590   -2.0516   -1.5339 C   0  0  0  0  0  0
    2.0340   -0.8383   -2.3295 N   0  0  0  0  0  0
    2.5419    0.3340   -1.6066 C   0  0  0  0  0  0
    1.8332    0.4998   -0.2600 C   0  0  0  0  0  0
    2.6799   -0.9549   -3.6364 C   0  0  0  0  0  0
    1.8193   -1.7892   -4.5775 C   0  0  0  0  0  0
    2.4674   -1.8879   -5.8393 O   0  0  0  0  0  0
    4.5926    2.5621    9.4786 C   0  0  0  0  0  0
    5.5825    3.3245    9.3610 O   0  0  0  0  0  0
    4.0056    2.3222   10.7453 N   0  0  0  0  0  0
    4.3654    2.8325   12.0181 C   0  0  0  0  0  0
    3.4388    3.5826   12.7423 C   0  0  0  0  0  0
    3.7798    4.0907   13.9958 C   0  0  0  0  0  0
    5.0475    3.8487   14.5250 C   0  0  0  0  0  0
    5.9741    3.0986   13.8008 C   0  0  0  0  0  0
    5.6330    2.5905   12.5473 C   0  0  0  0  0  0
    6.8138    1.6671   11.6873 Cl  0  0  0  0  0  0
    2.0725    3.8600   12.2035 C   0  0  0  0  0  0
    2.3231    0.7380    9.1833 H   0  0  0  0  0  0
    3.9878    1.3656    4.1098 H   0  0  0  0  0  0
    3.4079    0.6519    2.1761 H   0  0  0  0  0  0
   -0.4493   -1.9279    5.5231 H   0  0  0  0  0  0
   -0.3357   -3.1608    4.2217 H   0  0  0  0  0  0
   -1.4387   -1.7556    4.0338 H   0  0  0  0  0  0
    1.8156   -2.8395    0.4225 H   0  0  0  0  0  0
    0.4538   -1.9673   -0.3596 H   0  0  0  0  0  0
    3.3399   -2.1677   -1.3662 H   0  0  0  0  0  0
    1.8802   -2.9175   -2.0967 H   0  0  0  0  0  0
    3.6200    0.2137   -1.4246 H   0  0  0  0  0  0
    2.3703    1.2386   -2.2085 H   0  0  0  0  0  0
    0.7764    0.7459   -0.4408 H   0  0  0  0  0  0
    2.3107    1.3201    0.2960 H   0  0  0  0  0  0
    2.8172    0.0474   -4.0682 H   0  0  0  0  0  0
    3.6597   -1.4410   -3.5191 H   0  0  0  0  0  0
    1.6813   -2.7948   -4.1536 H   0  0  0  0  0  0
    0.8389   -1.3064   -4.7027 H   0  0  0  0  0  0
    1.9974   -2.4553   -6.6561 H   0  0  0  0  0  0
    3.1382    1.6512   10.8313 H   0  0  0  0  0  0
    3.0654    4.6767   14.5680 H   0  0  0  0  0  0
    5.3130    4.2442   15.5010 H   0  0  0  0  0  0
    6.9577    2.9195   14.2277 H   0  0  0  0  0  0
    1.5078    4.4638   12.9292 H   0  0  0  0  0  0
    1.5470    2.9094   12.0296 H   0  0  0  0  0  0
    2.1572    4.4109   11.2552 H   0  0  0  0  0  0
    1.2970   -0.5315    5.7100 H   0  0  0  0  0  0
  1  5  1  0  0  0
  1  2  2  0  0  0
  1 34  1  0  0  0
  2  3  1  0  0  0
  2 23  1  0  0  0
  3  4  1  0  0  0
  4  5  2  0  0  0
  4  6  1  0  0  0
  6  7  1  0  0  0
  6 35  1  0  0  0
  7 12  2  0  0  0
  7  8  1  0  0  0
  8  9  2  0  0  0
  8 36  1  0  0  0
  9 10  1  0  0  0
  9 14  1  0  0  0
 10 11  2  0  0  0
 11 12  1  0  0  0
 11 13  1  0  0  0
 12 60  1  0  0  0
 13 37  1  0  0  0
 13 38  1  0  0  0
 13 39  1  0  0  0
 14 19  1  0  0  0
 14 15  1  0  0  0
 15 16  1  0  0  0
 15 40  1  0  0  0
 15 41  1  0  0  0
 16 17  1  0  0  0
 16 42  1  0  0  0
 16 43  1  0  0  0
 17 18  1  0  0  0
 17 20  1  0  0  0
 18 19  1  0  0  0
 18 44  1  0  0  0
 18 45  1  0  0  0
 19 46  1  0  0  0
 19 47  1  0  0  0
 20 21  1  0  0  0
 20 48  1  0  0  0
 20 49  1  0  0  0
 21 22  1  0  0  0
 21 50  1  0  0  0
 21 51  1  0  0  0
 22 52  1  0  0  0
 23 24  2  0  0  0
 23 25  1  0  0  0
 25 26  1  0  0  0
 25 53  1  0  0  0
 26 31  2  0  0  0
 26 27  1  0  0  0
 27 28  2  0  0  0
 27 33  1  0  0  0
 28 29  1  0  0  0
 28 54  1  0  0  0
 29 30  2  0  0  0
 29 55  1  0  0  0
 30 31  1  0  0  0
 30 56  1  0  0  0
 31 32  1  0  0  0
 33 57  1  0  0  0
 33 58  1  0  0  0
 33 59  1  0  0  0
M  CHG  1  12   1
M  END
> <s_m_source_file>
/Users/choderaj/github/choderalab/mcce-charges/mcce-charges.jchodera/epik_inhibitors/output/Dasatinib/Dasatinib-input.mol2

> <i_m_source_file_index>
1

> <r_lp_tautomer_probability>
0.000712994788381179

> <r_epik_Ionization_Penalty>
  0.2889

> <r_epik_Ionization_Penalty_Charging>
  0.0881

> <r_epik_Ionization_Penalty_Neutral>
  0.2009

> <r_epik_State_Penalty>
  2.1445

> <i_epik_Tot_Q>
1

$$$$
~{N}-(2-chloro-6-methyl-phenyl)-2-[[6-[4-(2-hydroxyethyl)piperazin-1-yl]-2-methyl-pyrimidin-4-yl]amino]thiazole-5-carboxamide
                    3D
 Structure written by MMmdl.
 61 64  0  0  1  0            999 V2000
    2.8905    1.0688    8.3231 C   0  0  0  0  0  0
    3.9713    1.9243    8.3671 C   0  0  0  0  0  0
    4.5685    2.1789    6.7797 S   0  0  0  0  0  0
    3.3441    1.1375    6.1785 C   0  0  0  0  0  0
    2.5291    0.6169    7.0689 N   0  0  0  0  0  0
    3.2675    0.8919    4.7930 N   0  0  0  0  0  0
    2.3952    0.1019    4.0049 C   0  0  0  0  0  0
    2.6085    0.0868    2.6416 C   0  0  0  0  0  0
    1.7377   -0.6944    1.9097 C   0  0  0  0  0  0
    0.7329   -1.4101    2.4558 N   0  0  0  0  0  0
    0.6285   -1.3130    3.7949 C   0  0  0  0  0  0
    1.4110   -0.5885    4.6174 N   0  3  0  0  0  0
   -0.4709   -2.0903    4.4354 C   0  0  0  0  0  0
    1.9200   -0.7367    0.5229 N   0  0  0  0  0  0
    1.5400   -1.9653   -0.1857 C   0  0  0  0  0  0
    2.2590   -2.0516   -1.5339 C   0  0  0  0  0  0
    2.0340   -0.8383   -2.3295 N   0  3  0  0  0  0
    2.5419    0.3340   -1.6066 C   0  0  0  0  0  0
    1.8332    0.4998   -0.2600 C   0  0  0  0  0  0
    2.6799   -0.9549   -3.6364 C   0  0  0  0  0  0
    1.8193   -1.7892   -4.5775 C   0  0  0  0  0  0
    2.4674   -1.8879   -5.8393 O   0  0  0  0  0  0
    4.5926    2.5621    9.4786 C   0  0  0  0  0  0
    5.5825    3.3245    9.3610 O   0  0  0  0  0  0
    4.0056    2.3222   10.7453 N   0  0  0  0  0  0
    4.3654    2.8325   12.0181 C   0  0  0  0  0  0
    3.4388    3.5826   12.7423 C   0  0  0  0  0  0
    3.7798    4.0907   13.9958 C   0  0  0  0  0  0
    5.0475    3.8487   14.5250 C   0  0  0  0  0  0
    5.9741    3.0986   13.8008 C   0  0  0  0  0  0
    5.6330    2.5905   12.5473 C   0  0  0  0  0  0
    6.8138    1.6671   11.6873 Cl  0  0  0  0  0  0
    2.0725    3.8600   12.2035 C   0  0  0  0  0  0
    2.3231    0.7380    9.1833 H   0  0  0  0  0  0
    3.9878    1.3656    4.1098 H   0  0  0  0  0  0
    3.4079    0.6519    2.1761 H   0  0  0  0  0  0
   -0.4493   -1.9279    5.5231 H   0  0  0  0  0  0
   -0.3357   -3.1608    4.2217 H   0  0  0  0  0  0
   -1.4387   -1.7556    4.0338 H   0  0  0  0  0  0
    1.8156   -2.8395    0.4225 H   0  0  0  0  0  0
    0.4538   -1.9673   -0.3596 H   0  0  0  0  0  0
    3.3399   -2.1677   -1.3662 H   0  0  0  0  0  0
    1.8802   -2.9175   -2.0967 H   0  0  0  0  0  0
    3.6200    0.2137   -1.4246 H   0  0  0  0  0  0
    2.3703    1.2386   -2.2085 H   0  0  0  0  0  0
    0.7764    0.7459   -0.4408 H   0  0  0  0  0  0
    2.3107    1.3201    0.2960 H   0  0  0  0  0  0
    2.8172    0.0474   -4.0682 H   0  0  0  0  0  0
    3.6597   -1.4410   -3.5191 H   0  0  0  0  0  0
    1.6813   -2.7948   -4.1536 H   0  0  0  0  0  0
    0.8389   -1.3064   -4.7027 H   0  0  0  0  0  0
    1.9974   -2.4553   -6.6561 H   0  0  0  0  0  0
    3.1382    1.6512   10.8313 H   0  0  0  0  0  0
    3.0654    4.6767   14.5680 H   0  0  0  0  0  0
    5.3130    4.2442   15.5010 H   0  0  0  0  0  0
    6.9577    2.9195   14.2277 H   0  0  0  0  0  0
    1.5078    4.4638   12.9292 H   0  0  0  0  0  0
    1.5470    2.9094   12.0296 H   0  0  0  0  0  0
    2.1572    4.4109   11.2552 H   0  0  0  0  0  0
    1.2970   -0.5315    5.7100 H   0  0  0  0  0  0
    0.9536   -0.7148   -2.4953 H   0  0  0  0  0  0
  1  5  1  0  0  0
  1  2  2  0  0  0
  1 34  1  0  0  0
  2  3  1  0  0  0
  2 23  1  0  0  0
  3  4  1  0  0  0
  4  5  2  0  0  0
  4  6  1  0  0  0
  6  7  1  0  0  0
  6 35  1  0  0  0
  7 12  2  0  0  0
  7  8  1  0  0  0
  8  9  2  0  0  0
  8 36  1  0  0  0
  9 10  1  0  0  0
  9 14  1  0  0  0
 10 11  2  0  0  0
 11 12  1  0  0  0
 11 13  1  0  0  0
 12 60  1  0  0  0
 13 37  1  0  0  0
 13 38  1  0  0  0
 13 39  1  0  0  0
 14 19  1  0  0  0
 14 15  1  0  0  0
 15 16  1  0  0  0
 15 40  1  0  0  0
 15 41  1  0  0  0
 16 17  1  0  0  0
 16 42  1  0  0  0
 16 43  1  0  0  0
 17 18  1  0  0  0
 17 20  1  0  0  0
 17 61  1  0  0  0
 18 19  1  0  0  0
 18 44  1  0  0  0
 18 45  1  0  0  0
 19 46  1  0  0  0
 19 47  1  0  0  0
 20 21  1  0  0  0
 20 48  1  0  0  0
 20 49  1  0  0  0
 21 22  1  0  0  0
 21 50  1  0  0  0
 21 51  1  0  0  0
 22 52  1  0  0  0
 23 24  2  0  0  0
 23 25  1  0  0  0
 25 26  1  0  0  0
 25 53  1  0  0  0
 26 31  2  0  0  0
 26 27  1  0  0  0
 27 28  2  0  0  0
 27 33  1  0  0  0
 28 29  1  0  0  0
 28 54  1  0  0  0
 29 30  2  0  0  0
 29 55  1  0  0  0
 30 31  1  0  0  0
 30 56  1  0  0  0
 31 32  1  0  0  0
 33 57  1  0  0  0
 33 58  1  0  0  0
 33 59  1  0  0  0
M  CHG  2  12   1  17   1
M  END
> <s_m_source_file>
/Users/choderaj/github/choderalab/mcce-charges/mcce-charges.jchodera/epik_inhibitors/output/Dasatinib/Dasatinib-input.mol2

> <i_m_source_file_index>
1

> <r_epik_Ionization_Penalty>
  1.6989

> <r_epik_Ionization_Penalty_Charging>
  1.6888

> <r_epik_Ionization_Penalty_Neutral>
  0.0101

> <r_epik_State_Penalty>
  2.4957

> <i_epik_Tot_Q>
2

$$$$
~{N}-(2-chloro-6-methyl-phenyl)-2-[[6-[4-(2-hydroxyethyl)piperazin-1-yl]-2-methyl-pyrimidin-4-yl]amino]thiazole-5-carboxamide
                    3D
 Structure written by MMmdl.
 59 62  0  0  1  0            999 V2000
    2.8905    1.0688    8.3231 C   0  0  0  0  0  0
    3.9713    1.9243    8.3671 C   0  0  0  0  0  0
    4.5685    2.1789    6.7797 S   0  0  0  0  0  0
    3.3441    1.1375    6.1785 C   0  0  0  0  0  0
    2.5291    0.6169    7.0689 N   0  0  0  0  0  0
    3.2675    0.8919    4.7930 N   0  0  0  0  0  0
    2.3952    0.1019    4.0049 C   0  0  0  0  0  0
    2.6085    0.0868    2.6416 C   0  0  0  0  0  0
    1.7377   -0.6944    1.9097 C   0  0  0  0  0  0
    0.7329   -1.4101    2.4558 N   0  0  0  0  0  0
    0.6285   -1.3130    3.7949 C   0  0  0  0  0  0
    1.4110   -0.5885    4.6174 N   0  3  0  0  0  0
   -0.4709   -2.0903    4.4354 C   0  0  0  0  0  0
    1.9200   -0.7367    0.5229 N   0  0  0  0  0  0
    1.5400   -1.9653   -0.1857 C   0  0  0  0  0  0
    2.2590   -2.0516   -1.5339 C   0  0  0  0  0  0
    2.0340   -0.8383   -2.3295 N   0  0  0  0  0  0
    2.5419    0.3340   -1.6066 C   0  0  0  0  0  0
    1.8332    0.4998   -0.2600 C   0  0  0  0  0  0
    2.6799   -0.9549   -3.6364 C   0  0  0  0  0  0
    1.8193   -1.7892   -4.5775 C   0  0  0  0  0  0
    2.4674   -1.8879   -5.8393 O   0  0  0  0  0  0
    4.5926    2.5621    9.4786 C   0  0  0  0  0  0
    5.5825    3.3245    9.3610 O   0  5  0  0  0  0
    4.0056    2.3222   10.7453 N   0  0  0  0  0  0
    4.3654    2.8325   12.0181 C   0  0  0  0  0  0
    3.4388    3.5826   12.7423 C   0  0  0  0  0  0
    3.7798    4.0907   13.9958 C   0  0  0  0  0  0
    5.0475    3.8487   14.5250 C   0  0  0  0  0  0
    5.9741    3.0986   13.8008 C   0  0  0  0  0  0
    5.6330    2.5905   12.5473 C   0  0  0  0  0  0
    6.8138    1.6671   11.6873 Cl  0  0  0  0  0  0
    2.0725    3.8600   12.2035 C   0  0  0  0  0  0
    2.3231    0.7380    9.1833 H   0  0  0  0  0  0
    3.9878    1.3656    4.1098 H   0  0  0  0  0  0
    3.4079    0.6519    2.1761 H   0  0  0  0  0  0
   -0.4493   -1.9279    5.5231 H   0  0  0  0  0  0
   -0.3357   -3.1608    4.2217 H   0  0  0  0  0  0
   -1.4387   -1.7556    4.0338 H   0  0  0  0  0  0
    1.8156   -2.8395    0.4225 H   0  0  0  0  0  0
    0.4538   -1.9673   -0.3596 H   0  0  0  0  0  0
    3.3399   -2.1677   -1.3662 H   0  0  0  0  0  0
    1.8802   -2.9175   -2.0967 H   0  0  0  0  0  0
    3.6200    0.2137   -1.4246 H   0  0  0  0  0  0
    2.3703    1.2386   -2.2085 H   0  0  0  0  0  0
    0.7764    0.7459   -0.4408 H   0  0  0  0  0  0
    2.3107    1.3201    0.2960 H   0  0  0  0  0  0
    2.8172    0.0474   -4.0682 H   0  0  0  0  0  0
    3.6597   -1.4410   -3.5191 H   0  0  0  0  0  0
    1.6813   -2.7948   -4.1536 H   0  0  0  0  0  0
    0.8389   -1.3064   -4.7027 H   0  0  0  0  0  0
    1.9974   -2.4553   -6.6561 H   0  0  0  0  0  0
    3.0654    4.6767   14.5680 H   0  0  0  0  0  0
    5.3130    4.2442   15.5010 H   0  0  0  0  0  0
    6.9577    2.9195   14.2277 H   0  0  0  0  0  0
    1.5078    4.4638   12.9292 H   0  0  0  0  0  0
    1.5470    2.9094   12.0296 H   0  0  0  0  0  0
    2.1572    4.4109   11.2552 H   0  0  0  0  0  0
    1.2970   -0.5315    5.7100 H   0  0  0  0  0  0
  1  5  1  0  0  0
  1  2  2  0  0  0
  1 34  1  0  0  0
  2  3  1  0  0  0
  2 23  1  0  0  0
  3  4  1  0  0  0
  4  5  2  0  0  0
  4  6  1  0  0  0
  6  7  1  0  0  0
  6 35  1  0  0  0
  7 12  2  0  0  0
  7  8  1  0  0  0
  8  9  2  0  0  0
  8 36  1  0  0  0
  9 10  1  0  0  0
  9 14  1  0  0  0
 10 11  2  0  0  0
 11 12  1  0  0  0
 11 13  1  0  0  0
 12 59  1  0  0  0
 13 37  1  0  0  0
 13 38  1  0  0  0
 13 39  1  0  0  0
 14 19  1  0  0  0
 14 15  1  0  0  0
 15 16  1  0  0  0
 15 40  1  0  0  0
 15 41  1  0  0  0
 16 17  1  0  0  0
 16 42  1  0  0  0
 16 43  1  0  0  0
 17 18  1  0  0  0
 17 20  1  0  0  0
 18 19  1  0  0  0
 18 44  1  0  0  0
 18 45  1  0  0  0
 19 46  1  0  0  0
 19 47  1  0  0  0
 20 21  1  0  0  0
 20 48  1  0  0  0
 20 49  1  0  0  0
 21 22  1  0  0  0
 21 50  1  0  0  0
 21 51  1  0  0  0
 22 52  1  0  0  0
 23 24  1  0  0  0
 23 25  2  0  0  0
 25 26  1  0  0  0
 26 31  2  0  0  0
 26 27  1  0  0  0
 27 28  2  0  0  0
 27 33  1  0  0  0
 28 29  1  0  0  0
 28 53  1  0  0  0
 29 30  2  0  0  0
 29 54  1  0  0  0
 30 31  1  0  0  0
 30 55  1  0  0  0
 31 32  1  0  0  0
 33 56  1  0  0  0
 33 57  1  0  0  0
 33 58  1  0  0  0
M  CHG  2  12   1  24  -1
M  END
> <s_m_source_file>
/Users/choderaj/github/choderalab/mcce-charges/mcce-charges.jchodera/epik_inhibitors/output/Dasatinib/Dasatinib-input.mol2

> <i_m_source_file_index>
1

> <r_epik_Ionization_Penalty>
  4.3782

> <r_epik_Ionization_Penalty_Charging>
  4.1780

> <r_epik_Ionization_Penalty_Neutral>
  0.2003

> <r_epik_State_Penalty>
  5.0051

> <i_epik_Tot_Q>
0

$$$$
~{N}-(2-chloro-6-methyl-phenyl)-2-[[6-[4-(2-hydroxyethyl)piperazin-1-yl]-2-methyl-pyrimidin-4-yl]amino]thiazole-5-carboxamide
                    3D
 Structure written by MMmdl.
 58 61  0  0  1  0            999 V2000
    2.8905    1.0688    8.3231 C   0  0  0  0  0  0
    3.9713    1.9243    8.3671 C   0  0  0  0  0  0
    4.5685    2.1789    6.7797 S   0  0  0  0  0  0
    3.3441    1.1375    6.1785 C   0  0  0  0  0  0
    2.5291    0.6169    7.0689 N   0  0  0  0  0  0
    3.2675    0.8919    4.7930 N   0  0  0  0  0  0
    2.3952    0.1019    4.0049 C   0  0  0  0  0  0
    2.6085    0.0868    2.6416 C   0  0  0  0  0  0
    1.7377   -0.6944    1.9097 C   0  0  0  0  0  0
    0.7329   -1.4101    2.4558 N   0  0  0  0  0  0
    0.6285   -1.3130    3.7949 C   0  0  0  0  0  0
    1.4110   -0.5885    4.6174 N   0  0  0  0  0  0
   -0.4709   -2.0903    4.4354 C   0  0  0  0  0  0
    1.9200   -0.7367    0.5229 N   0  0  0  0  0  0
    1.5400   -1.9653   -0.1857 C   0  0  0  0  0  0
    2.2590   -2.0516   -1.5339 C   0  0  0  0  0  0
    2.0340   -0.8383   -2.3295 N   0  0  0  0  0  0
    2.5419    0.3340   -1.6066 C   0  0  0  0  0  0
    1.8332    0.4998   -0.2600 C   0  0  0  0  0  0
    2.6799   -0.9549   -3.6364 C   0  0  0  0  0  0
    1.8193   -1.7892   -4.5775 C   0  0  0  0  0  0
    2.4674   -1.8879   -5.8393 O   0  0  0  0  0  0
    4.5926    2.5621    9.4786 C   0  0  0  0  0  0
    5.5825    3.3245    9.3610 O   0  5  0  0  0  0
    4.0056    2.3222   10.7453 N   0  0  0  0  0  0
    4.3654    2.8325   12.0181 C   0  0  0  0  0  0
    3.4388    3.5826   12.7423 C   0  0  0  0  0  0
    3.7798    4.0907   13.9958 C   0  0  0  0  0  0
    5.0475    3.8487   14.5250 C   0  0  0  0  0  0
    5.9741    3.0986   13.8008 C   0  0  0  0  0  0
    5.6330    2.5905   12.5473 C   0  0  0  0  0  0
    6.8138    1.6671   11.6873 Cl  0  0  0  0  0  0
    2.0725    3.8600   12.2035 C   0  0  0  0  0  0
    2.3231    0.7380    9.1833 H   0  0  0  0  0  0
    3.9878    1.3656    4.1098 H   0  0  0  0  0  0
    3.4079    0.6519    2.1761 H   0  0  0  0  0  0
   -0.4493   -1.9279    5.5231 H   0  0  0  0  0  0
   -0.3357   -3.1608    4.2217 H   0  0  0  0  0  0
   -1.4387   -1.7556    4.0338 H   0  0  0  0  0  0
    1.8156   -2.8395    0.4225 H   0  0  0  0  0  0
    0.4538   -1.9673   -0.3596 H   0  0  0  0  0  0
    3.3399   -2.1677   -1.3662 H   0  0  0  0  0  0
    1.8802   -2.9175   -2.0967 H   0  0  0  0  0  0
    3.6200    0.2137   -1.4246 H   0  0  0  0  0  0
    2.3703    1.2386   -2.2085 H   0  0  0  0  0  0
    0.7764    0.7459   -0.4408 H   0  0  0  0  0  0
    2.3107    1.3201    0.2960 H   0  0  0  0  0  0
    2.8172    0.0474   -4.0682 H   0  0  0  0  0  0
    3.6597   -1.4410   -3.5191 H   0  0  0  0  0  0
    1.6813   -2.7948   -4.1536 H   0  0  0  0  0  0
    0.8389   -1.3064   -4.7027 H   0  0  0  0  0  0
    1.9974   -2.4553   -6.6561 H   0  0  0  0  0  0
    3.0654    4.6767   14.5680 H   0  0  0  0  0  0
    5.3130    4.2442   15.5010 H   0  0  0  0  0  0
    6.9577    2.9195   14.2277 H   0  0  0  0  0  0
    1.5078    4.4638   12.9292 H   0  0  0  0  0  0
    1.5470    2.9094   12.0296 H   0  0  0  0  0  0
    2.1572    4.4109   11.2552 H   0  0  0  0  0  0
  1  5  1  0  0  0
  1  2  2  0  0  0
  1 34  1  0  0  0
  2  3  1  0  0  0
  2 23  1  0  0  0
  3  4  1  0  0  0
  4  5  2  0  0  0
  4  6  1  0  0  0
  6  7  1  0  0  0
  6 35  1  0  0  0
  7 12  2  0  0  0
  7  8  1  0  0  0
  8  9  2  0  0  0
  8 36  1  0  0  0
  9 10  1  0  0  0
  9 14  1  0  0  0
 10 11  2  0  0  0
 11 12  1  0  0  0
 11 13  1  0  0  0
 13 37  1  0  0  0
 13 38  1  0  0  0
 13 39  1  0  0  0
 14 19  1  0  0  0
 14 15  1  0  0  0
 15 16  1  0  0  0
 15 40  1  0  0  0
 15 41  1  0  0  0
 16 17  1  0  0  0
 16 42  1  0  0  0
 16 43  1  0  0  0
 17 18  1  0  0  0
 17 20  1  0  0  0
 18 19  1  0  0  0
 18 44  1  0  0  0
 18 45  1  0  0  0
 19 46  1  0  0  0
 19 47  1  0  0  0
 20 21  1  0  0  0
 20 48  1  0  0  0
 20 49  1  0  0  0
 21 22  1  0  0  0
 21 50  1  0  0  0
 21 51  1  0  0  0
 22 52  1  0  0  0
 23 24  1  0  0  0
 23 25  2  0  0  0
 25 26  1  0  0  0
 26 31  2  0  0  0
 26 27  1  0  0  0
 27 28  2  0  0  0
 27 33  1  0  0  0
 28 29  1  0  0  0
 28 53  1  0  0  0
 29 30  2  0  0  0
 29 54  1  0  0  0
 30 31  1  0  0  0
 30 55  1  0  0  0
 31 32  1  0  0  0
 33 56  1  0  0  0
 33 57  1  0  0  0
 33 58  1  0  0  0
M  CHG  1  24  -1
M  END
> <s_m_source_file>
/Users/choderaj/github/choderalab/mcce-charges/mcce-charges.jchodera/epik_inhibitors/output/Dasatinib/Dasatinib-input.mol2

> <i_m_source_file_index>
1

> <r_lp_tautomer_probability>
0.999999999985434

> <r_epik_Ionization_Penalty>
  5.4699

> <r_epik_Ionization_Penalty_Charging>
  4.0899

> <r_epik_Ionization_Penalty_Neutral>
  1.3800

> <r_epik_State_Penalty>
  5.1057

> <i_epik_Tot_Q>
-1

$$$$
~{N}-(2-chloro-6-methyl-phenyl)-2-[[6-[4-(2-hydroxyethyl)piperazin-1-yl]-2-methyl-pyrimidin-4-yl]amino]thiazole-5-carboxamide
                    3D
 Structure written by MMmdl.
 59 62  0  0  1  0            999 V2000
    2.8905    1.0688    8.3231 C   0  0  0  0  0  0
    3.9713    1.9243    8.3671 C   0  0  0  0  0  0
    4.5685    2.1789    6.7797 S   0  0  0  0  0  0
    3.3441    1.1375    6.1785 C   0  0  0  0  0  0
    2.5291    0.6169    7.0689 N   0  0  0  0  0  0
    3.2675    0.8919    4.7930 N   0  0  0  0  0  0
    2.3952    0.1019    4.0049 C   0  0  0  0  0  0
    2.6085    0.0868    2.6416 C   0  0  0  0  0  0
    1.7377   -0.6944    1.9097 C   0  0  0  0  0  0
    0.7329   -1.4101    2.4558 N   0  0  0  0  0  0
    0.6285   -1.3130    3.7949 C   0  0  0  0  0  0
    1.4110   -0.5885    4.6174 N   0  0  0  0  0  0
   -0.4709   -2.0903    4.4354 C   0  0  0  0  0  0
    1.9200   -0.7367    0.5229 N   0  0  0  0  0  0
    1.5400   -1.9653   -0.1857 C   0  0  0  0  0  0
    2.2590   -2.0516   -1.5339 C   0  0  0  0  0  0
    2.0340   -0.8383   -2.3295 N   0  3  0  0  0  0
    2.5419    0.3340   -1.6066 C   0  0  0  0  0  0
    1.8332    0.4998   -0.2600 C   0  0  0  0  0  0
    2.6799   -0.9549   -3.6364 C   0  0  0  0  0  0
    1.8193   -1.7892   -4.5775 C   0  0  0  0  0  0
    2.4674   -1.8879   -5.8393 O   0  0  0  0  0  0
    4.5926    2.5621    9.4786 C   0  0  0  0  0  0
    5.5825    3.3245    9.3610 O   0  5  0  0  0  0
    4.0056    2.3222   10.7453 N   0  0  0  0  0  0
    4.3654    2.8325   12.0181 C   0  0  0  0  0  0
    3.4388    3.5826   12.7423 C   0  0  0  0  0  0
    3.7798    4.0907   13.9958 C   0  0  0  0  0  0
    5.0475    3.8487   14.5250 C   0  0  0  0  0  0
    5.9741    3.0986   13.8008 C   0  0  0  0  0  0
    5.6330    2.5905   12.5473 C   0  0  0  0  0  0
    6.8138    1.6671   11.6873 Cl  0  0  0  0  0  0
    2.0725    3.8600   12.2035 C   0  0  0  0  0  0
    2.3231    0.7380    9.1833 H   0  0  0  0  0  0
    3.9878    1.3656    4.1098 H   0  0  0  0  0  0
    3.4079    0.6519    2.1761 H   0  0  0  0  0  0
   -0.4493   -1.9279    5.5231 H   0  0  0  0  0  0
   -0.3357   -3.1608    4.2217 H   0  0  0  0  0  0
   -1.4387   -1.7556    4.0338 H   0  0  0  0  0  0
    1.8156   -2.8395    0.4225 H   0  0  0  0  0  0
    0.4538   -1.9673   -0.3596 H   0  0  0  0  0  0
    3.3399   -2.1677   -1.3662 H   0  0  0  0  0  0
    1.8802   -2.9175   -2.0967 H   0  0  0  0  0  0
    3.6200    0.2137   -1.4246 H   0  0  0  0  0  0
    2.3703    1.2386   -2.2085 H   0  0  0  0  0  0
    0.7764    0.7459   -0.4408 H   0  0  0  0  0  0
    2.3107    1.3201    0.2960 H   0  0  0  0  0  0
    2.8172    0.0474   -4.0682 H   0  0  0  0  0  0
    3.6597   -1.4410   -3.5191 H   0  0  0  0  0  0
    1.6813   -2.7948   -4.1536 H   0  0  0  0  0  0
    0.8389   -1.3064   -4.7027 H   0  0  0  0  0  0
    1.9974   -2.4553   -6.6561 H   0  0  0  0  0  0
    3.0654    4.6767   14.5680 H   0  0  0  0  0  0
    5.3130    4.2442   15.5010 H   0  0  0  0  0  0
    6.9577    2.9195   14.2277 H   0  0  0  0  0  0
    1.5078    4.4638   12.9292 H   0  0  0  0  0  0
    1.5470    2.9094   12.0296 H   0  0  0  0  0  0
    2.1572    4.4109   11.2552 H   0  0  0  0  0  0
    0.9536   -0.7148   -2.4953 H   0  0  0  0  0  0
  1  5  1  0  0  0
  1  2  2  0  0  0
  1 34  1  0  0  0
  2  3  1  0  0  0
  2 23  1  0  0  0
  3  4  1  0  0  0
  4  5  2  0  0  0
  4  6  1  0  0  0
  6  7  1  0  0  0
  6 35  1  0  0  0
  7 12  2  0  0  0
  7  8  1  0  0  0
  8  9  2  0  0  0
  8 36  1  0  0  0
  9 10  1  0  0  0
  9 14  1  0  0  0
 10 11  2  0  0  0
 11 12  1  0  0  0
 11 13  1  0  0  0
 13 37  1  0  0  0
 13 38  1  0  0  0
 13 39  1  0  0  0
 14 19  1  0  0  0
 14 15  1  0  0  0
 15 16  1  0  0  0
 15 40  1  0  0  0
 15 41  1  0  0  0
 16 17  1  0  0  0
 16 42  1  0  0  0
 16 43  1  0  0  0
 17 18  1  0  0  0
 17 20  1  0  0  0
 17 59  1  0  0  0
 18 19  1  0  0  0
 18 44  1  0  0  0
 18 45  1  0  0  0
 19 46  1  0  0  0
 19 47  1  0  0  0
 20 21  1  0  0  0
 20 48  1  0  0  0
 20 49  1  0  0  0
 21 22  1  0  0  0
 21 50  1  0  0  0
 21 51  1  0  0  0
 22 52  1  0  0  0
 23 24  1  0  0  0
 23 25  2  0  0  0
 25 26  1  0  0  0
 26 31  2  0  0  0
 26 27  1  0  0  0
 27 28  2  0  0  0
 27 33  1  0  0  0
 28 29  1  0  0  0
 28 53  1  0  0  0
 29 30  2  0  0  0
 29 54  1  0  0  0
 30 31  1  0  0  0
 30 55  1  0  0  0
 31 32  1  0  0  0
 33 56  1  0  0  0
 33 57  1  0  0  0
 33 58  1  0  0  0
M  CHG  2  17   1  24  -1
M  END
> <s_m_source_file>
/Users/choderaj/github/choderalab/mcce-charges/mcce-charges.jchodera/epik_inhibitors/output/Dasatinib/Dasatinib-input.mol2

> <i_m_source_file_index>
1

> <r_epik_Ionization_Penalty>
  4.9794

> <r_epik_Ionization_Penalty_Charging>
  4.8425

> <r_epik_Ionization_Penalty_Neutral>
  0.1369

> <r_epik_State_Penalty>
  5.1672

> <i_epik_Tot_Q>
0

$$$$
~{N}-(2-chloro-6-methyl-phenyl)-2-[[6-[4-(2-hydroxyethyl)piperazin-1-yl]-2-methyl-pyrimidin-4-yl]amino]thiazole-5-carboxamide
                    3D
 Structure written by MMmdl.
 60 63  0  0  1  0            999 V2000
    2.8905    1.0688    8.3231 C   0  0  0  0  0  0
    3.9713    1.9243    8.3671 C   0  0  0  0  0  0
    4.5685    2.1789    6.7797 S   0  0  0  0  0  0
    3.3441    1.1375    6.1785 C   0  0  0  0  0  0
    2.5291    0.6169    7.0689 N   0  0  0  0  0  0
    3.2675    0.8919    4.7930 N   0  0  0  0  0  0
    2.3952    0.1019    4.0049 C   0  0  0  0  0  0
    2.6085    0.0868    2.6416 C   0  0  0  0  0  0
    1.7377   -0.6944    1.9097 C   0  0  0  0  0  0
    0.7329   -1.4101    2.4558 N   0  0  0  0  0  0
    0.6285   -1.3130    3.7949 C   0  0  0  0  0  0
    1.4110   -0.5885    4.6174 N   0  3  0  0  0  0
   -0.4709   -2.0903    4.4354 C   0  0  0  0  0  0
    1.9200   -0.7367    0.5229 N   0  0  0  0  0  0
    1.5400   -1.9653   -0.1857 C   0  0  0  0  0  0
    2.2590   -2.0516   -1.5339 C   0  0  0  0  0  0
    2.0340   -0.8383   -2.3295 N   0  3  0  0  0  0
    2.5419    0.3340   -1.6066 C   0  0  0  0  0  0
    1.8332    0.4998   -0.2600 C   0  0  0  0  0  0
    2.6799   -0.9549   -3.6364 C   0  0  0  0  0  0
    1.8193   -1.7892   -4.5775 C   0  0  0  0  0  0
    2.4674   -1.8879   -5.8393 O   0  0  0  0  0  0
    4.5926    2.5621    9.4786 C   0  0  0  0  0  0
    5.5825    3.3245    9.3610 O   0  5  0  0  0  0
    4.0056    2.3222   10.7453 N   0  0  0  0  0  0
    4.3654    2.8325   12.0181 C   0  0  0  0  0  0
    3.4388    3.5826   12.7423 C   0  0  0  0  0  0
    3.7798    4.0907   13.9958 C   0  0  0  0  0  0
    5.0475    3.8487   14.5250 C   0  0  0  0  0  0
    5.9741    3.0986   13.8008 C   0  0  0  0  0  0
    5.6330    2.5905   12.5473 C   0  0  0  0  0  0
    6.8138    1.6671   11.6873 Cl  0  0  0  0  0  0
    2.0725    3.8600   12.2035 C   0  0  0  0  0  0
    2.3231    0.7380    9.1833 H   0  0  0  0  0  0
    3.9878    1.3656    4.1098 H   0  0  0  0  0  0
    3.4079    0.6519    2.1761 H   0  0  0  0  0  0
   -0.4493   -1.9279    5.5231 H   0  0  0  0  0  0
   -0.3357   -3.1608    4.2217 H   0  0  0  0  0  0
   -1.4387   -1.7556    4.0338 H   0  0  0  0  0  0
    1.8156   -2.8395    0.4225 H   0  0  0  0  0  0
    0.4538   -1.9673   -0.3596 H   0  0  0  0  0  0
    3.3399   -2.1677   -1.3662 H   0  0  0  0  0  0
    1.8802   -2.9175   -2.0967 H   0  0  0  0  0  0
    3.6200    0.2137   -1.4246 H   0  0  0  0  0  0
    2.3703    1.2386   -2.2085 H   0  0  0  0  0  0
    0.7764    0.7459   -0.4408 H   0  0  0  0  0  0
    2.3107    1.3201    0.2960 H   0  0  0  0  0  0
    2.8172    0.0474   -4.0682 H   0  0  0  0  0  0
    3.6597   -1.4410   -3.5191 H   0  0  0  0  0  0
    1.6813   -2.7948   -4.1536 H   0  0  0  0  0  0
    0.8389   -1.3064   -4.7027 H   0  0  0  0  0  0
    1.9974   -2.4553   -6.6561 H   0  0  0  0  0  0
    3.0654    4.6767   14.5680 H   0  0  0  0  0  0
    5.3130    4.2442   15.5010 H   0  0  0  0  0  0
    6.9577    2.9195   14.2277 H   0  0  0  0  0  0
    1.5078    4.4638   12.9292 H   0  0  0  0  0  0
    1.5470    2.9094   12.0296 H   0  0  0  0  0  0
    2.1572    4.4109   11.2552 H   0  0  0  0  0  0
    1.2970   -0.5315    5.7100 H   0  0  0  0  0  0
    0.9536   -0.7148   -2.4953 H   0  0  0  0  0  0
  1  5  1  0  0  0
  1  2  2  0  0  0
  1 34  1  0  0  0
  2  3  1  0  0  0
  2 23  1  0  0  0
  3  4  1  0  0  0
  4  5  2  0  0  0
  4  6  1  0  0  0
  6  7  1  0  0  0
  6 35  1  0  0  0
  7 12  2  0  0  0
  7  8  1  0  0  0
  8  9  2  0  0  0
  8 36  1  0  0  0
  9 10  1  0  0  0
  9 14  1  0  0  0
 10 11  2  0  0  0
 11 12  1  0  0  0
 11 13  1  0  0  0
 12 59  1  0  0  0
 13 37  1  0  0  0
 13 38  1  0  0  0
 13 39  1  0  0  0
 14 19  1  0  0  0
 14 15  1  0  0  0
 15 16  1  0  0  0
 15 40  1  0  0  0
 15 41  1  0  0  0
 16 17  1  0  0  0
 16 42  1  0  0  0
 16 43  1  0  0  0
 17 18  1  0  0  0
 17 20  1  0  0  0
 17 60  1  0  0  0
 18 19  1  0  0  0
 18 44  1  0  0  0
 18 45  1  0  0  0
 19 46  1  0  0  0
 19 47  1  0  0  0
 20 21  1  0  0  0
 20 48  1  0  0  0
 20 49  1  0  0  0
 21 22  1  0  0  0
 21 50  1  0  0  0
 21 51  1  0  0  0
 22 52  1  0  0  0
 23 24  1  0  0  0
 23 25  2  0  0  0
 25 26  1  0  0  0
 26 31  2  0  0  0
 26 27  1  0  0  0
 27 28  2  0  0  0
 27 33  1  0  0  0
 28 29  1  0  0  0
 28 53  1  0  0  0
 29 30  2  0  0  0
 29 54  1  0  0  0
 30 31  1  0  0  0
 30 55  1  0  0  0
 31 32  1  0  0  0
 33 56  1  0  0  0
 33 57  1  0  0  0
 33 58  1  0  0  0
M  CHG  3  12   1  17   1  24  -1
M  END
> <s_m_source_file>
/Users/choderaj/github/choderalab/mcce-charges/mcce-charges.jchodera/epik_inhibitors/output/Dasatinib/Dasatinib-input.mol2

> <i_m_source_file_index>
1

> <r_epik_Ionization_Penalty>
  5.7882

> <r_epik_Ionization_Penalty_Charging>
  5.7787

> <r_epik_Ionization_Penalty_Neutral>
  0.0095

> <r_epik_State_Penalty>
  5.3703

> <i_epik_Tot_Q>
1

$$$$
