@<TRIPOS>MOLECULE
~{N}-(2-chloro-6-methyl-phenyl)-2-[[6-[4-(2-hydroxyethyl)piperazin-1-yl]-2-methyl-pyrimidin-1-ium-4-yl]amino]thiazole-5-carboxamide
   60    63     0     0     0
SMALL
USER_CHARGES

@<TRIPOS>ATOM
      1 C1         46.6110   82.6200   38.8410 C.2       1 <0>         0.3756
      2 C2         46.7750   82.0670   40.0440 C.2       1 <0>        -0.2531
      3 C3         47.6870   82.4940   41.1480 C.2       1 <0>         0.7100
      4 N1         39.1540   74.8480   36.4620 N.3       1 <0>        -0.7445
      5 C4         51.3280   84.7110   43.8460 C.ar      1 <0>        -0.1129
      6 C5         51.6490   83.9220   42.7330 C.ar      1 <0>        -0.1186
      7 C6         50.6600   83.5350   41.8220 C.ar      1 <0>        -0.0454
      8 C7         51.0540   82.7460   40.6060 C.3       1 <0>        -0.0608
      9 C8         43.3450   79.0450   38.8240 C.ar      1 <0>         0.7836
     10 C9         42.2600   78.4660   38.1410 C.ar      1 <0>        -0.4021
     11 C10        41.6410   77.3640   38.7640 C.ar      1 <0>         0.3294
     12 C11        43.1380   77.5250   40.5610 C.ar      1 <0>         0.6259
     13 C12        43.6000   77.0970   41.9190 C.3       1 <0>        -0.1788
     14 C13        39.8200   75.5660   38.8090 C.3       1 <0>         0.1943
     15 C14        39.9050   77.1490   36.8840 C.3       1 <0>         0.1943
     16 C15        39.2210   73.7370   35.5030 C.3       1 <0>         0.1653
     17 C16        38.3550   73.8890   34.2270 C.3       1 <0>         0.1331
     18 N2         43.9770   80.1180   38.2570 N.pl3     1 <0>        -0.7721
     19 C17        45.0120   80.8680   38.7420 C.2       1 <0>         0.5485
     20 N3         45.5400   81.9390   38.1020 N.2       1 <0>        -0.6161
     21 S1         45.8120   80.6770   40.2960 S.3       1 <0>         0.0647
     22 N4         48.3930   83.6260   41.1040 N.am      1 <0>        -0.4547
     23 C18        49.3330   83.9150   42.0370 C.ar      1 <0>         0.0362
     24 C19        49.0210   84.6530   43.2010 C.ar      1 <0>        -0.0021
     25 C20        50.0050   85.0710   44.1070 C.ar      1 <0>        -0.1128
     26 Cl1        47.3940   85.0560   43.5890 Cl        1 <0>        -0.0973
     27 O1         47.7260   81.7050   42.0920 O.2       1 <0>        -0.5753
     28 N5         42.0970   76.9050   39.9750 N.ar      1 <0>        -0.3739
     29 N6         43.7640   78.5580   40.0120 N.ar      1 <0>        -0.6793
     30 N7         40.4900   76.7170   38.1650 N.pl3     1 <0>        -0.6649
     31 C21        39.6220   74.4100   37.7990 C.3       1 <0>         0.1682
     32 C22        39.9110   75.9790   35.8960 C.3       1 <0>         0.1682
     33 O2         37.4960   75.0150   34.2610 O.3       1 <0>        -0.5989
     34 H1         47.1860   83.4530   38.4630 H         1 <0>         0.0629
     35 H2         52.1130   85.0440   44.5090 H         1 <0>         0.1479
     36 H3         52.6710   83.6090   42.5770 H         1 <0>         0.1453
     37 H4         50.1593   82.5287   40.0042 H         1 <0>         0.0546
     38 H5         51.5242   81.8018   40.9181 H         1 <0>         0.0546
     39 H6         51.7671   83.3298   40.0053 H         1 <0>         0.0546
     40 H7         41.9190   78.8460   37.1890 H         1 <0>         0.1872
     41 H8         44.4548   77.7167   42.2276 H         1 <0>         0.0985
     42 H9         43.9056   76.0408   41.8863 H         1 <0>         0.0985
     43 H10        42.7791   77.2190   42.6409 H         1 <0>         0.0985
     44 H11        40.4359   75.2044   39.6456 H         1 <0>         0.0606
     45 H12        38.8356   75.8792   39.1870 H         1 <0>         0.0606
     46 H13        38.8701   77.4837   37.0479 H         1 <0>         0.0606
     47 H14        40.4977   77.9788   36.4715 H         1 <0>         0.0606
     48 H15        40.2576   73.6141   35.1561 H         1 <0>         0.0604
     49 H16        38.8856   72.8102   35.9915 H         1 <0>         0.0604
     50 H17        39.0101   73.9996   33.3503 H         1 <0>         0.0301
     51 H18        37.7245   72.9962   34.1032 H         1 <0>         0.0301
     52 H19        43.6592   80.4849   37.2699 H         1 <0>         0.4767
     53 H20        48.2185   84.3520   40.2962 H         1 <0>         0.3250
     54 H21        49.7480   85.6530   44.9790 H         1 <0>         0.1563
     55 H22        38.8860   73.7198   38.2371 H         1 <0>         0.0603
     56 H23        40.5905   73.8981   37.6989 H         1 <0>         0.0603
     57 H24        40.9486   75.6672   35.7059 H         1 <0>         0.0603
     58 H25        39.4447   76.2964   34.9517 H         1 <0>         0.0603
     59 H26        36.8323   75.2264   33.4096 H         1 <0>         0.4146
     60 H27        41.6125   76.0412   40.4536 H         1 <0>         0.3266
@<TRIPOS>BOND
     1    1    2 2
     2    1   20 1
     3    1   34 1
     4    2    3 1
     5    2   21 1
     6    3   22 am
     7    3   27 2
     8    4   16 1
     9    4   31 1
    10    4   32 1
    11    5    6 ar
    12    5   25 ar
    13    5   35 1
    14    6    7 ar
    15    6   36 1
    16    7    8 1
    17    7   23 ar
    18    8   37 1
    19    8   38 1
    20    8   39 1
    21    9   10 ar
    22    9   18 1
    23    9   29 ar
    24   10   11 ar
    25   10   40 1
    26   11   28 ar
    27   11   30 1
    28   12   13 1
    29   12   28 ar
    30   12   29 ar
    31   13   41 1
    32   13   42 1
    33   13   43 1
    34   14   30 1
    35   14   31 1
    36   14   44 1
    37   14   45 1
    38   15   30 1
    39   15   32 1
    40   15   46 1
    41   15   47 1
    42   16   17 1
    43   16   48 1
    44   16   49 1
    45   17   33 1
    46   17   50 1
    47   17   51 1
    48   18   19 1
    49   18   52 1
    50   19   20 2
    51   19   21 1
    52   22   23 1
    53   22   53 1
    54   23   24 ar
    55   24   25 ar
    56   24   26 1
    57   25   54 1
    58   28   60 1
    59   31   55 1
    60   31   56 1
    61   32   57 1
    62   32   58 1
    63   33   59 1
@<TRIPOS>MOLECULE
~{N}-(2-chloro-6-methyl-phenyl)-2-[[6-[4-(2-hydroxyethyl)piperazin-1-yl]-2-methyl-pyrimidin-4-yl]amino]thiazole-5-carboxamide
   59    62     0     0     0
SMALL
USER_CHARGES

@<TRIPOS>ATOM
      1 C1         46.6110   82.6200   38.8410 C.2       1 <0>         0.3963
      2 C2         46.7750   82.0670   40.0440 C.2       1 <0>        -0.2959
      3 C3         47.6870   82.4940   41.1480 C.2       1 <0>         0.7250
      4 N1         39.1540   74.8480   36.4620 N.3       1 <0>        -0.7437
      5 C4         51.3280   84.7110   43.8460 C.ar      1 <0>        -0.1216
      6 C5         51.6490   83.9220   42.7330 C.ar      1 <0>        -0.1252
      7 C6         50.6600   83.5350   41.8220 C.ar      1 <0>        -0.0824
      8 C7         51.0540   82.7460   40.6060 C.3       1 <0>        -0.0526
      9 C8         43.3450   79.0450   38.8240 C.ar      1 <0>         0.7036
     10 C9         42.2600   78.4660   38.1410 C.ar      1 <0>        -0.4502
     11 C10        41.6410   77.3640   38.7640 C.ar      1 <0>         0.6920
     12 C11        43.1380   77.5250   40.5610 C.ar      1 <0>         0.6974
     13 C12        43.6000   77.0970   41.9190 C.3       1 <0>        -0.1357
     14 C13        39.8200   75.5660   38.8090 C.3       1 <0>         0.2016
     15 C14        39.9050   77.1490   36.8840 C.3       1 <0>         0.2016
     16 C15        39.2210   73.7370   35.5030 C.3       1 <0>         0.1709
     17 C16        38.3550   73.8890   34.2270 C.3       1 <0>         0.1290
     18 N2         43.9770   80.1180   38.2570 N.pl3     1 <0>        -0.8348
     19 C17        45.0120   80.8680   38.7420 C.2       1 <0>         0.6589
     20 N3         45.5400   81.9390   38.1020 N.2       1 <0>        -0.6461
     21 S1         45.8120   80.6770   40.2960 S.3       1 <0>        -0.0538
     22 N4         48.3930   83.6260   41.1040 N.am      1 <0>        -0.4804
     23 C18        49.3330   83.9150   42.0370 C.ar      1 <0>         0.0573
     24 C19        49.0210   84.6530   43.2010 C.ar      1 <0>         0.0304
     25 C20        50.0050   85.0710   44.1070 C.ar      1 <0>        -0.1226
     26 Cl1        47.3940   85.0560   43.5890 Cl        1 <0>        -0.0747
     27 O1         47.7260   81.7050   42.0920 O.2       1 <0>        -0.5855
     28 N5         42.0970   76.9050   39.9750 N.ar      1 <0>        -0.7656
     29 N6         43.7640   78.5580   40.0120 N.ar      1 <0>        -0.7147
     30 N7         40.4900   76.7170   38.1650 N.pl3     1 <0>        -0.7681
     31 C21        39.6220   74.4100   37.7990 C.3       1 <0>         0.1684
     32 C22        39.9110   75.9790   35.8960 C.3       1 <0>         0.1684
     33 O2         37.4960   75.0150   34.2610 O.3       1 <0>        -0.6055
     34 H1         47.1860   83.4530   38.4630 H         1 <0>         0.0418
     35 H2         52.1130   85.0440   44.5090 H         1 <0>         0.1383
     36 H3         52.6710   83.6090   42.5770 H         1 <0>         0.1361
     37 H4         50.1593   82.5287   40.0042 H         1 <0>         0.0467
     38 H5         51.5242   81.8018   40.9181 H         1 <0>         0.0467
     39 H6         51.7671   83.3298   40.0053 H         1 <0>         0.0467
     40 H7         41.9190   78.8460   37.1890 H         1 <0>         0.1534
     41 H8         44.4548   77.7167   42.2276 H         1 <0>         0.0646
     42 H9         43.9056   76.0408   41.8863 H         1 <0>         0.0646
     43 H10        42.7791   77.2190   42.6409 H         1 <0>         0.0646
     44 H11        40.4359   75.2044   39.6456 H         1 <0>         0.0516
     45 H12        38.8356   75.8792   39.1870 H         1 <0>         0.0516
     46 H13        38.8701   77.4837   37.0479 H         1 <0>         0.0516
     47 H14        40.4977   77.9788   36.4715 H         1 <0>         0.0516
     48 H15        40.2576   73.6141   35.1561 H         1 <0>         0.0481
     49 H16        38.8856   72.8102   35.9915 H         1 <0>         0.0481
     50 H17        39.0101   73.9996   33.3503 H         1 <0>         0.0296
     51 H18        37.7245   72.9962   34.1032 H         1 <0>         0.0296
     52 H19        43.6592   80.4849   37.2699 H         1 <0>         0.4581
     53 H20        48.2185   84.3520   40.2962 H         1 <0>         0.3194
     54 H21        49.7480   85.6530   44.9790 H         1 <0>         0.1501
     55 H22        38.8860   73.7198   38.2371 H         1 <0>         0.0407
     56 H23        40.5905   73.8981   37.6989 H         1 <0>         0.0407
     57 H24        40.9486   75.6672   35.7059 H         1 <0>         0.0407
     58 H25        39.4447   76.2964   34.9517 H         1 <0>         0.0407
     59 H26        36.8323   75.2264   33.4096 H         1 <0>         0.4026
@<TRIPOS>BOND
     1    1    2 2
     2    1   20 1
     3    1   34 1
     4    2    3 1
     5    2   21 1
     6    3   22 am
     7    3   27 2
     8    4   16 1
     9    4   31 1
    10    4   32 1
    11    5    6 ar
    12    5   25 ar
    13    5   35 1
    14    6    7 ar
    15    6   36 1
    16    7    8 1
    17    7   23 ar
    18    8   37 1
    19    8   38 1
    20    8   39 1
    21    9   10 ar
    22    9   18 1
    23    9   29 ar
    24   10   11 ar
    25   10   40 1
    26   11   28 ar
    27   11   30 1
    28   12   13 1
    29   12   28 ar
    30   12   29 ar
    31   13   41 1
    32   13   42 1
    33   13   43 1
    34   14   30 1
    35   14   31 1
    36   14   44 1
    37   14   45 1
    38   15   30 1
    39   15   32 1
    40   15   46 1
    41   15   47 1
    42   16   17 1
    43   16   48 1
    44   16   49 1
    45   17   33 1
    46   17   50 1
    47   17   51 1
    48   18   19 1
    49   18   52 1
    50   19   20 2
    51   19   21 1
    52   22   23 1
    53   22   53 1
    54   23   24 ar
    55   24   25 ar
    56   24   26 1
    57   25   54 1
    58   31   55 1
    59   31   56 1
    60   32   57 1
    61   32   58 1
    62   33   59 1
@<TRIPOS>MOLECULE
~{N}-(2-chloro-6-methyl-phenyl)-2-[[6-[4-(2-hydroxyethyl)piperazin-1-yl]-2-methyl-pyrimidin-3-ium-4-yl]amino]thiazole-5-carboxamide
   60    63     0     0     0
SMALL
USER_CHARGES

@<TRIPOS>ATOM
      1 C1         46.6110   82.6200   38.8410 C.2       1 <0>         0.3937
      2 C2         46.7750   82.0670   40.0440 C.2       1 <0>        -0.2770
      3 C3         47.6870   82.4940   41.1480 C.2       1 <0>         0.7063
      4 N1         39.1540   74.8480   36.4620 N.3       1 <0>        -0.7318
      5 C4         51.3280   84.7110   43.8460 C.ar      1 <0>        -0.1100
      6 C5         51.6490   83.9220   42.7330 C.ar      1 <0>        -0.1186
      7 C6         50.6600   83.5350   41.8220 C.ar      1 <0>        -0.0414
      8 C7         51.0540   82.7460   40.6060 C.3       1 <0>        -0.0636
      9 C8         43.3450   79.0450   38.8240 C.ar      1 <0>         0.3310
     10 C9         42.2600   78.4660   38.1410 C.ar      1 <0>        -0.4119
     11 C10        41.6410   77.3640   38.7640 C.ar      1 <0>         0.7759
     12 C11        43.1380   77.5250   40.5610 C.ar      1 <0>         0.6322
     13 C12        43.6000   77.0970   41.9190 C.3       1 <0>        -0.1750
     14 C13        39.8200   75.5660   38.8090 C.3       1 <0>         0.1983
     15 C14        39.9050   77.1490   36.8840 C.3       1 <0>         0.1983
     16 C15        39.2210   73.7370   35.5030 C.3       1 <0>         0.1600
     17 C16        38.3550   73.8890   34.2270 C.3       1 <0>         0.1319
     18 N2         43.9770   80.1180   38.2570 N.pl3     1 <0>        -0.6959
     19 C17        45.0120   80.8680   38.7420 C.2       1 <0>         0.5176
     20 N3         45.5400   81.9390   38.1020 N.2       1 <0>        -0.7017
     21 S1         45.8120   80.6770   40.2960 S.3       1 <0>         0.1441
     22 N4         48.3930   83.6260   41.1040 N.am      1 <0>        -0.4512
     23 C18        49.3330   83.9150   42.0370 C.ar      1 <0>         0.0311
     24 C19        49.0210   84.6530   43.2010 C.ar      1 <0>         0.0007
     25 C20        50.0050   85.0710   44.1070 C.ar      1 <0>        -0.1129
     26 Cl1        47.3940   85.0560   43.5890 Cl        1 <0>        -0.0991
     27 O1         47.7260   81.7050   42.0920 O.2       1 <0>        -0.5750
     28 N5         42.0970   76.9050   39.9750 N.ar      1 <0>        -0.7402
     29 N6         43.7640   78.5580   40.0120 N.ar      1 <0>        -0.3419
     30 N7         40.4900   76.7170   38.1650 N.pl3     1 <0>        -0.7173
     31 C21        39.6220   74.4100   37.7990 C.3       1 <0>         0.1568
     32 C22        39.9110   75.9790   35.8960 C.3       1 <0>         0.1568
     33 O2         37.4960   75.0150   34.2610 O.3       1 <0>        -0.5989
     34 H1         47.1860   83.4530   38.4630 H         1 <0>         0.0652
     35 H2         52.1130   85.0440   44.5090 H         1 <0>         0.1495
     36 H3         52.6710   83.6090   42.5770 H         1 <0>         0.1470
     37 H4         50.1593   82.5287   40.0042 H         1 <0>         0.0554
     38 H5         51.5242   81.8018   40.9181 H         1 <0>         0.0554
     39 H6         51.7671   83.3298   40.0053 H         1 <0>         0.0554
     40 H7         41.9190   78.8460   37.1890 H         1 <0>         0.1840
     41 H8         44.4548   77.7167   42.2276 H         1 <0>         0.0973
     42 H9         43.9056   76.0408   41.8863 H         1 <0>         0.0973
     43 H10        42.7791   77.2190   42.6409 H         1 <0>         0.0973
     44 H11        40.4359   75.2044   39.6456 H         1 <0>         0.0725
     45 H12        38.8356   75.8792   39.1870 H         1 <0>         0.0725
     46 H13        38.8701   77.4837   37.0479 H         1 <0>         0.0725
     47 H14        40.4977   77.9788   36.4715 H         1 <0>         0.0725
     48 H15        40.2576   73.6141   35.1561 H         1 <0>         0.0591
     49 H16        38.8856   72.8102   35.9915 H         1 <0>         0.0591
     50 H17        39.0101   73.9996   33.3503 H         1 <0>         0.0310
     51 H18        37.7245   72.9962   34.1032 H         1 <0>         0.0310
     52 H19        43.6592   80.4849   37.2699 H         1 <0>         0.4732
     53 H20        48.2185   84.3520   40.2962 H         1 <0>         0.3226
     54 H21        49.7480   85.6530   44.9790 H         1 <0>         0.1577
     55 H22        38.8860   73.7198   38.2371 H         1 <0>         0.0584
     56 H23        40.5905   73.8981   37.6989 H         1 <0>         0.0584
     57 H24        40.9486   75.6672   35.7059 H         1 <0>         0.0584
     58 H25        39.4447   76.2964   34.9517 H         1 <0>         0.0584
     59 H26        36.8323   75.2264   33.4096 H         1 <0>         0.4139
     60 H27        44.6229   79.0177   40.5228 H         1 <0>         0.3537
@<TRIPOS>BOND
     1    1    2 2
     2    1   20 1
     3    1   34 1
     4    2    3 1
     5    2   21 1
     6    3   22 am
     7    3   27 2
     8    4   16 1
     9    4   31 1
    10    4   32 1
    11    5    6 ar
    12    5   25 ar
    13    5   35 1
    14    6    7 ar
    15    6   36 1
    16    7    8 1
    17    7   23 ar
    18    8   37 1
    19    8   38 1
    20    8   39 1
    21    9   10 ar
    22    9   18 1
    23    9   29 ar
    24   10   11 ar
    25   10   40 1
    26   11   28 ar
    27   11   30 1
    28   12   13 1
    29   12   28 ar
    30   12   29 ar
    31   13   41 1
    32   13   42 1
    33   13   43 1
    34   14   30 1
    35   14   31 1
    36   14   44 1
    37   14   45 1
    38   15   30 1
    39   15   32 1
    40   15   46 1
    41   15   47 1
    42   16   17 1
    43   16   48 1
    44   16   49 1
    45   17   33 1
    46   17   50 1
    47   17   51 1
    48   18   19 1
    49   18   52 1
    50   19   20 2
    51   19   21 1
    52   22   23 1
    53   22   53 1
    54   23   24 ar
    55   24   25 ar
    56   24   26 1
    57   25   54 1
    58   29   60 1
    59   31   55 1
    60   31   56 1
    61   32   57 1
    62   32   58 1
    63   33   59 1
@<TRIPOS>MOLECULE
(5~{Z})-~{N}-(2-chloro-6-methyl-phenyl)-2-[[6-[4-(2-hydroxyethyl)piperazin-1-yl]-2-methyl-pyrimidin-3-ium-4-yl]amino]thiazole-5-carboximidate
   59    62     0     0     0
SMALL
USER_CHARGES

@<TRIPOS>ATOM
      1 C1         46.6110   82.6200   38.8410 C.2       1 <0>         0.3359
      2 C2         46.7750   82.0670   40.0440 C.2       1 <0>        -0.1427
      3 C3         47.6870   82.4940   41.1480 C.2       1 <0>         0.9508
      4 N1         39.1540   74.8480   36.4620 N.3       1 <0>        -0.7442
      5 C4         51.3280   84.7110   43.8460 C.ar      1 <0>        -0.1689
      6 C5         51.6490   83.9220   42.7330 C.ar      1 <0>        -0.1222
      7 C6         50.6600   83.5350   41.8220 C.ar      1 <0>        -0.1064
      8 C7         51.0540   82.7460   40.6060 C.3       1 <0>        -0.0359
      9 C8         43.3450   79.0450   38.8240 C.ar      1 <0>         0.3341
     10 C9         42.2600   78.4660   38.1410 C.ar      1 <0>        -0.4144
     11 C10        41.6410   77.3640   38.7640 C.ar      1 <0>         0.7583
     12 C11        43.1380   77.5250   40.5610 C.ar      1 <0>         0.6168
     13 C12        43.6000   77.0970   41.9190 C.3       1 <0>        -0.1701
     14 C13        39.8200   75.5660   38.8090 C.3       1 <0>         0.2019
     15 C14        39.9050   77.1490   36.8840 C.3       1 <0>         0.2019
     16 C15        39.2210   73.7370   35.5030 C.3       1 <0>         0.1684
     17 C16        38.3550   73.8890   34.2270 C.3       1 <0>         0.1301
     18 N2         43.9770   80.1180   38.2570 N.pl3     1 <0>        -0.6505
     19 C17        45.0120   80.8680   38.7420 C.2       1 <0>         0.4268
     20 N3         45.5400   81.9390   38.1020 N.2       1 <0>        -0.6970
     21 S1         45.8120   80.6770   40.2960 S.3       1 <0>         0.0354
     22 N4         48.3930   83.6260   41.1040 N.2       1 <0>        -0.8340
     23 C18        49.3330   83.9150   42.0370 C.ar      1 <0>         0.2618
     24 C19        49.0210   84.6530   43.2010 C.ar      1 <0>        -0.0054
     25 C20        50.0050   85.0710   44.1070 C.ar      1 <0>        -0.1212
     26 Cl1        47.3940   85.0560   43.5890 Cl        1 <0>        -0.1317
     27 O1         47.7260   81.7050   42.0920 O.3       1 <0>        -0.8091
     28 N5         42.0970   76.9050   39.9750 N.ar      1 <0>        -0.7491
     29 N6         43.7640   78.5580   40.0120 N.ar      1 <0>        -0.3470
     30 N7         40.4900   76.7170   38.1650 N.pl3     1 <0>        -0.7532
     31 C21        39.6220   74.4100   37.7990 C.3       1 <0>         0.1658
     32 C22        39.9110   75.9790   35.8960 C.3       1 <0>         0.1658
     33 O2         37.4960   75.0150   34.2610 O.3       1 <0>        -0.6024
     34 H1         47.1860   83.4530   38.4630 H         1 <0>         0.0718
     35 H2         52.1130   85.0440   44.5090 H         1 <0>         0.1171
     36 H3         52.6710   83.6090   42.5770 H         1 <0>         0.1133
     37 H4         50.1593   82.5287   40.0042 H         1 <0>         0.0337
     38 H5         51.5242   81.8018   40.9181 H         1 <0>         0.0337
     39 H6         51.7671   83.3298   40.0053 H         1 <0>         0.0337
     40 H7         41.9190   78.8460   37.1890 H         1 <0>         0.1786
     41 H8         44.4548   77.7167   42.2276 H         1 <0>         0.0903
     42 H9         43.9056   76.0408   41.8863 H         1 <0>         0.0903
     43 H10        42.7791   77.2190   42.6409 H         1 <0>         0.0903
     44 H11        40.4359   75.2044   39.6456 H         1 <0>         0.0615
     45 H12        38.8356   75.8792   39.1870 H         1 <0>         0.0615
     46 H13        38.8701   77.4837   37.0479 H         1 <0>         0.0615
     47 H14        40.4977   77.9788   36.4715 H         1 <0>         0.0615
     48 H15        40.2576   73.6141   35.1561 H         1 <0>         0.0543
     49 H16        38.8856   72.8102   35.9915 H         1 <0>         0.0543
     50 H17        39.0101   73.9996   33.3503 H         1 <0>         0.0302
     51 H18        37.7245   72.9962   34.1032 H         1 <0>         0.0302
     52 H19        43.6592   80.4849   37.2699 H         1 <0>         0.4812
     53 H20        49.7480   85.6530   44.9790 H         1 <0>         0.1268
     54 H21        38.8860   73.7198   38.2371 H         1 <0>         0.0503
     55 H22        40.5905   73.8981   37.6989 H         1 <0>         0.0503
     56 H23        40.9486   75.6672   35.7059 H         1 <0>         0.0503
     57 H24        39.4447   76.2964   34.9517 H         1 <0>         0.0503
     58 H25        36.8323   75.2264   33.4096 H         1 <0>         0.4075
     59 H26        44.6229   79.0177   40.5228 H         1 <0>         0.3674
@<TRIPOS>BOND
     1    1    2 2
     2    1   20 1
     3    1   34 1
     4    2    3 1
     5    2   21 1
     6    3   22 2
     7    3   27 1
     8    4   16 1
     9    4   31 1
    10    4   32 1
    11    5    6 ar
    12    5   25 ar
    13    5   35 1
    14    6    7 ar
    15    6   36 1
    16    7    8 1
    17    7   23 ar
    18    8   37 1
    19    8   38 1
    20    8   39 1
    21    9   10 ar
    22    9   18 1
    23    9   29 ar
    24   10   11 ar
    25   10   40 1
    26   11   28 ar
    27   11   30 1
    28   12   13 1
    29   12   28 ar
    30   12   29 ar
    31   13   41 1
    32   13   42 1
    33   13   43 1
    34   14   30 1
    35   14   31 1
    36   14   44 1
    37   14   45 1
    38   15   30 1
    39   15   32 1
    40   15   46 1
    41   15   47 1
    42   16   17 1
    43   16   48 1
    44   16   49 1
    45   17   33 1
    46   17   50 1
    47   17   51 1
    48   18   19 1
    49   18   52 1
    50   19   20 2
    51   19   21 1
    52   22   23 1
    53   23   24 ar
    54   24   25 ar
    55   24   26 1
    56   25   53 1
    57   29   59 1
    58   31   54 1
    59   31   55 1
    60   32   56 1
    61   32   57 1
    62   33   58 1
@<TRIPOS>MOLECULE
~{N}-(2-chloro-6-methyl-phenyl)-2-[[6-[4-(2-hydroxyethyl)piperazin-4-ium-1-yl]-2-methyl-pyrimidin-4-yl]amino]thiazole-5-carboxamide
   60    63     0     0     0
SMALL
USER_CHARGES

@<TRIPOS>ATOM
      1 C1         46.6110   82.6200   38.8410 C.2       1 <0>         0.3918
      2 C2         46.7750   82.0670   40.0440 C.2       1 <0>        -0.3253
      3 C3         47.6870   82.4940   41.1480 C.2       1 <0>         0.7215
      4 N1         39.1540   74.8480   36.4620 N.4       1 <0>        -0.6842
      5 C4         51.3280   84.7110   43.8460 C.ar      1 <0>        -0.1144
      6 C5         51.6490   83.9220   42.7330 C.ar      1 <0>        -0.1239
      7 C6         50.6600   83.5350   41.8220 C.ar      1 <0>        -0.0793
      8 C7         51.0540   82.7460   40.6060 C.3       1 <0>        -0.0525
      9 C8         43.3450   79.0450   38.8240 C.ar      1 <0>         0.7113
     10 C9         42.2600   78.4660   38.1410 C.ar      1 <0>        -0.4365
     11 C10        41.6410   77.3640   38.7640 C.ar      1 <0>         0.6658
     12 C11        43.1380   77.5250   40.5610 C.ar      1 <0>         0.7277
     13 C12        43.6000   77.0970   41.9190 C.3       1 <0>        -0.1442
     14 C13        39.8200   75.5660   38.8090 C.3       1 <0>         0.1722
     15 C14        39.9050   77.1490   36.8840 C.3       1 <0>         0.1722
     16 C15        39.2210   73.7370   35.5030 C.3       1 <0>         0.0915
     17 C16        38.3550   73.8890   34.2270 C.3       1 <0>         0.1190
     18 N2         43.9770   80.1180   38.2570 N.pl3     1 <0>        -0.8148
     19 C17        45.0120   80.8680   38.7420 C.2       1 <0>         0.5648
     20 N3         45.5400   81.9390   38.1020 N.2       1 <0>        -0.6863
     21 S1         45.8120   80.6770   40.2960 S.3       1 <0>         0.1469
     22 N4         48.3930   83.6260   41.1040 N.am      1 <0>        -0.4745
     23 C18        49.3330   83.9150   42.0370 C.ar      1 <0>         0.0479
     24 C19        49.0210   84.6530   43.2010 C.ar      1 <0>         0.0325
     25 C20        50.0050   85.0710   44.1070 C.ar      1 <0>        -0.1207
     26 Cl1        47.3940   85.0560   43.5890 Cl        1 <0>        -0.0760
     27 O1         47.7260   81.7050   42.0920 O.2       1 <0>        -0.5841
     28 N5         42.0970   76.9050   39.9750 N.ar      1 <0>        -0.7733
     29 N6         43.7640   78.5580   40.0120 N.ar      1 <0>        -0.7450
     30 N7         40.4900   76.7170   38.1650 N.pl3     1 <0>        -0.7702
     31 C21        39.6220   74.4100   37.7990 C.3       1 <0>         0.1037
     32 C22        39.9110   75.9790   35.8960 C.3       1 <0>         0.1037
     33 O2         37.4960   75.0150   34.2610 O.3       1 <0>        -0.5787
     34 H1         47.1860   83.4530   38.4630 H         1 <0>         0.0484
     35 H2         52.1130   85.0440   44.5090 H         1 <0>         0.1437
     36 H3         52.6710   83.6090   42.5770 H         1 <0>         0.1399
     37 H4         50.1593   82.5287   40.0042 H         1 <0>         0.0464
     38 H5         51.5242   81.8018   40.9181 H         1 <0>         0.0464
     39 H6         51.7671   83.3298   40.0053 H         1 <0>         0.0464
     40 H7         41.9190   78.8460   37.1890 H         1 <0>         0.1579
     41 H8         44.4548   77.7167   42.2276 H         1 <0>         0.0769
     42 H9         43.9056   76.0408   41.8863 H         1 <0>         0.0769
     43 H10        42.7791   77.2190   42.6409 H         1 <0>         0.0769
     44 H11        40.4359   75.2044   39.6456 H         1 <0>         0.0872
     45 H12        38.8356   75.8792   39.1870 H         1 <0>         0.0872
     46 H13        38.8701   77.4837   37.0479 H         1 <0>         0.0872
     47 H14        40.4977   77.9788   36.4715 H         1 <0>         0.0872
     48 H15        40.2576   73.6141   35.1561 H         1 <0>         0.1214
     49 H16        38.8856   72.8102   35.9915 H         1 <0>         0.1214
     50 H17        39.0101   73.9996   33.3503 H         1 <0>         0.0445
     51 H18        37.7245   72.9962   34.1032 H         1 <0>         0.0445
     52 H19        43.6592   80.4849   37.2699 H         1 <0>         0.4685
     53 H20        48.2185   84.3520   40.2962 H         1 <0>         0.3197
     54 H21        49.7480   85.6530   44.9790 H         1 <0>         0.1533
     55 H22        38.8860   73.7198   38.2371 H         1 <0>         0.1114
     56 H23        40.5905   73.8981   37.6989 H         1 <0>         0.1114
     57 H24        40.9486   75.6672   35.7059 H         1 <0>         0.1114
     58 H25        39.4447   76.2964   34.9517 H         1 <0>         0.1114
     59 H26        36.8323   75.2264   33.4096 H         1 <0>         0.4425
     60 H27        38.1173   75.1834   36.6129 H         1 <0>         0.4416
@<TRIPOS>BOND
     1    1    2 2
     2    1   20 1
     3    1   34 1
     4    2    3 1
     5    2   21 1
     6    3   22 am
     7    3   27 2
     8    4   16 1
     9    4   31 1
    10    4   32 1
    11    4   60 1
    12    5    6 ar
    13    5   25 ar
    14    5   35 1
    15    6    7 ar
    16    6   36 1
    17    7    8 1
    18    7   23 ar
    19    8   37 1
    20    8   38 1
    21    8   39 1
    22    9   10 ar
    23    9   18 1
    24    9   29 ar
    25   10   11 ar
    26   10   40 1
    27   11   28 ar
    28   11   30 1
    29   12   13 1
    30   12   28 ar
    31   12   29 ar
    32   13   41 1
    33   13   42 1
    34   13   43 1
    35   14   30 1
    36   14   31 1
    37   14   44 1
    38   14   45 1
    39   15   30 1
    40   15   32 1
    41   15   46 1
    42   15   47 1
    43   16   17 1
    44   16   48 1
    45   16   49 1
    46   17   33 1
    47   17   50 1
    48   17   51 1
    49   18   19 1
    50   18   52 1
    51   19   20 2
    52   19   21 1
    53   22   23 1
    54   22   53 1
    55   23   24 ar
    56   24   25 ar
    57   24   26 1
    58   25   54 1
    59   31   55 1
    60   31   56 1
    61   32   57 1
    62   32   58 1
    63   33   59 1
@<TRIPOS>MOLECULE
(5~{Z})-~{N}-(2-chloro-6-methyl-phenyl)-2-[[6-[4-(2-hydroxyethyl)piperazin-1-yl]-2-methyl-pyrimidin-4-yl]amino]thiazole-5-carboximidate
   58    61     0     0     0
SMALL
USER_CHARGES

@<TRIPOS>ATOM
      1 C1         46.6110   82.6200   38.8410 C.2       1 <0>         0.3228
      2 C2         46.7750   82.0670   40.0440 C.2       1 <0>        -0.1609
      3 C3         47.6870   82.4940   41.1480 C.2       1 <0>         0.9759
      4 N1         39.1540   74.8480   36.4620 N.3       1 <0>        -0.7495
      5 C4         51.3280   84.7110   43.8460 C.ar      1 <0>        -0.1930
      6 C5         51.6490   83.9220   42.7330 C.ar      1 <0>        -0.1227
      7 C6         50.6600   83.5350   41.8220 C.ar      1 <0>        -0.1232
      8 C7         51.0540   82.7460   40.6060 C.3       1 <0>        -0.0341
      9 C8         43.3450   79.0450   38.8240 C.ar      1 <0>         0.7041
     10 C9         42.2600   78.4660   38.1410 C.ar      1 <0>        -0.4567
     11 C10        41.6410   77.3640   38.7640 C.ar      1 <0>         0.6700
     12 C11        43.1380   77.5250   40.5610 C.ar      1 <0>         0.6882
     13 C12        43.6000   77.0970   41.9190 C.3       1 <0>        -0.1323
     14 C13        39.8200   75.5660   38.8090 C.3       1 <0>         0.1944
     15 C14        39.9050   77.1490   36.8840 C.3       1 <0>         0.1944
     16 C15        39.2210   73.7370   35.5030 C.3       1 <0>         0.1754
     17 C16        38.3550   73.8890   34.2270 C.3       1 <0>         0.1272
     18 N2         43.9770   80.1180   38.2570 N.pl3     1 <0>        -0.8039
     19 C17        45.0120   80.8680   38.7420 C.2       1 <0>         0.5662
     20 N3         45.5400   81.9390   38.1020 N.2       1 <0>        -0.6288
     21 S1         45.8120   80.6770   40.2960 S.3       1 <0>        -0.1617
     22 N4         48.3930   83.6260   41.1040 N.2       1 <0>        -0.8638
     23 C18        49.3330   83.9150   42.0370 C.ar      1 <0>         0.3020
     24 C19        49.0210   84.6530   43.2010 C.ar      1 <0>        -0.0222
     25 C20        50.0050   85.0710   44.1070 C.ar      1 <0>        -0.1231
     26 Cl1        47.3940   85.0560   43.5890 Cl        1 <0>        -0.1355
     27 O1         47.7260   81.7050   42.0920 O.3       1 <0>        -0.8237
     28 N5         42.0970   76.9050   39.9750 N.ar      1 <0>        -0.7851
     29 N6         43.7640   78.5580   40.0120 N.ar      1 <0>        -0.7044
     30 N7         40.4900   76.7170   38.1650 N.pl3     1 <0>        -0.7578
     31 C21        39.6220   74.4100   37.7990 C.3       1 <0>         0.1710
     32 C22        39.9110   75.9790   35.8960 C.3       1 <0>         0.1710
     33 O2         37.4960   75.0150   34.2610 O.3       1 <0>        -0.6071
     34 H1         47.1860   83.4530   38.4630 H         1 <0>         0.0503
     35 H2         52.1130   85.0440   44.5090 H         1 <0>         0.1049
     36 H3         52.6710   83.6090   42.5770 H         1 <0>         0.1033
     37 H4         50.1593   82.5287   40.0042 H         1 <0>         0.0328
     38 H5         51.5242   81.8018   40.9181 H         1 <0>         0.0328
     39 H6         51.7671   83.3298   40.0053 H         1 <0>         0.0328
     40 H7         41.9190   78.8460   37.1890 H         1 <0>         0.1487
     41 H8         44.4548   77.7167   42.2276 H         1 <0>         0.0589
     42 H9         43.9056   76.0408   41.8863 H         1 <0>         0.0589
     43 H10        42.7791   77.2190   42.6409 H         1 <0>         0.0589
     44 H11        40.4359   75.2044   39.6456 H         1 <0>         0.0504
     45 H12        38.8356   75.8792   39.1870 H         1 <0>         0.0504
     46 H13        38.8701   77.4837   37.0479 H         1 <0>         0.0504
     47 H14        40.4977   77.9788   36.4715 H         1 <0>         0.0504
     48 H15        40.2576   73.6141   35.1561 H         1 <0>         0.0448
     49 H16        38.8856   72.8102   35.9915 H         1 <0>         0.0448
     50 H17        39.0101   73.9996   33.3503 H         1 <0>         0.0284
     51 H18        37.7245   72.9962   34.1032 H         1 <0>         0.0284
     52 H19        43.6592   80.4849   37.2699 H         1 <0>         0.4353
     53 H20        49.7480   85.6530   44.9790 H         1 <0>         0.1152
     54 H21        38.8860   73.7198   38.2371 H         1 <0>         0.0368
     55 H22        40.5905   73.8981   37.6989 H         1 <0>         0.0368
     56 H23        40.9486   75.6672   35.7059 H         1 <0>         0.0368
     57 H24        39.4447   76.2964   34.9517 H         1 <0>         0.0368
     58 H25        36.8323   75.2264   33.4096 H         1 <0>         0.3989
@<TRIPOS>BOND
     1    1    2 2
     2    1   20 1
     3    1   34 1
     4    2    3 1
     5    2   21 1
     6    3   22 2
     7    3   27 1
     8    4   16 1
     9    4   31 1
    10    4   32 1
    11    5    6 ar
    12    5   25 ar
    13    5   35 1
    14    6    7 ar
    15    6   36 1
    16    7    8 1
    17    7   23 ar
    18    8   37 1
    19    8   38 1
    20    8   39 1
    21    9   10 ar
    22    9   18 1
    23    9   29 ar
    24   10   11 ar
    25   10   40 1
    26   11   28 ar
    27   11   30 1
    28   12   13 1
    29   12   28 ar
    30   12   29 ar
    31   13   41 1
    32   13   42 1
    33   13   43 1
    34   14   30 1
    35   14   31 1
    36   14   44 1
    37   14   45 1
    38   15   30 1
    39   15   32 1
    40   15   46 1
    41   15   47 1
    42   16   17 1
    43   16   48 1
    44   16   49 1
    45   17   33 1
    46   17   50 1
    47   17   51 1
    48   18   19 1
    49   18   52 1
    50   19   20 2
    51   19   21 1
    52   22   23 1
    53   23   24 ar
    54   24   25 ar
    55   24   26 1
    56   25   53 1
    57   31   54 1
    58   31   55 1
    59   32   56 1
    60   32   57 1
    61   33   58 1
@<TRIPOS>MOLECULE
(~{Z})-[5-[(2-chloro-6-methyl-phenyl)carbamoyl]thiazol-3-ium-2-yl]-[6-[4-(2-hydroxyethyl)piperazin-1-yl]-2-methyl-1~{H}-pyrimidin-4-ylidene]ammonium
   61    64     0     0     0
SMALL
USER_CHARGES

@<TRIPOS>ATOM
      1 C1         46.6110   82.6200   38.8410 C.2       1 <0>        -0.0631
      2 C2         46.7750   82.0670   40.0440 C.2       1 <0>        -0.1770
      3 C3         47.6870   82.4940   41.1480 C.2       1 <0>         0.6862
      4 N1         39.1540   74.8480   36.4620 N.3       1 <0>        -0.7510
      5 C4         51.3280   84.7110   43.8460 C.ar      1 <0>        -0.0883
      6 C5         51.6490   83.9220   42.7330 C.ar      1 <0>        -0.1108
      7 C6         50.6600   83.5350   41.8220 C.ar      1 <0>        -0.0698
      8 C7         51.0540   82.7460   40.6060 C.3       1 <0>        -0.0613
      9 C8         43.3450   79.0450   38.8240 C.cat     1 <0>         0.5957
     10 C9         42.2600   78.4660   38.1410 C.2       1 <0>        -0.3701
     11 C10        41.6410   77.3640   38.7640 C.2       1 <0>         0.4502
     12 C11        43.1380   77.5250   40.5610 C.2       1 <0>         0.7316
     13 C12        43.6000   77.0970   41.9190 C.3       1 <0>        -0.1670
     14 C13        39.8200   75.5660   38.8090 C.3       1 <0>         0.1808
     15 C14        39.9050   77.1490   36.8840 C.3       1 <0>         0.1808
     16 C15        39.2210   73.7370   35.5030 C.3       1 <0>         0.1653
     17 C16        38.3550   73.8890   34.2270 C.3       1 <0>         0.1357
     18 N2         43.9770   80.1180   38.2570 N.pl3     1 <0>        -0.2807
     19 C17        45.0120   80.8680   38.7420 C.2       1 <0>         0.0545
     20 N3         45.5400   81.9390   38.1020 N.pl3     1 <0>        -0.1254
     21 S1         45.8120   80.6770   40.2960 S.3       1 <0>         0.3544
     22 N4         48.3930   83.6260   41.1040 N.am      1 <0>        -0.4375
     23 C18        49.3330   83.9150   42.0370 C.ar      1 <0>        -0.0039
     24 C19        49.0210   84.6530   43.2010 C.ar      1 <0>         0.0445
     25 C20        50.0050   85.0710   44.1070 C.ar      1 <0>        -0.1089
     26 Cl1        47.3940   85.0560   43.5890 Cl        1 <0>        -0.0860
     27 O1         47.7260   81.7050   42.0920 O.2       1 <0>        -0.4920
     28 N5         42.0970   76.9050   39.9750 N.pl3     1 <0>        -0.6788
     29 N6         43.7640   78.5580   40.0120 N.2       1 <0>        -0.7821
     30 N7         40.4900   76.7170   38.1650 N.pl3     1 <0>        -0.6355
     31 C21        39.6220   74.4100   37.7990 C.3       1 <0>         0.1575
     32 C22        39.9110   75.9790   35.8960 C.3       1 <0>         0.1575
     33 O2         37.4960   75.0150   34.2610 O.3       1 <0>        -0.5974
     34 H1         47.1860   83.4530   38.4630 H         1 <0>         0.2398
     35 H2         52.1130   85.0440   44.5090 H         1 <0>         0.1634
     36 H3         52.6710   83.6090   42.5770 H         1 <0>         0.1571
     37 H4         50.1593   82.5287   40.0042 H         1 <0>         0.0490
     38 H5         51.5242   81.8018   40.9181 H         1 <0>         0.0490
     39 H6         51.7671   83.3298   40.0053 H         1 <0>         0.0490
     40 H7         41.9190   78.8460   37.1890 H         1 <0>         0.2073
     41 H8         44.4548   77.7167   42.2276 H         1 <0>         0.1095
     42 H9         43.9056   76.0408   41.8863 H         1 <0>         0.1095
     43 H10        42.7791   77.2190   42.6409 H         1 <0>         0.1095
     44 H11        40.4359   75.2044   39.6456 H         1 <0>         0.0889
     45 H12        38.8356   75.8792   39.1870 H         1 <0>         0.0889
     46 H13        38.8701   77.4837   37.0479 H         1 <0>         0.0889
     47 H14        40.4977   77.9788   36.4715 H         1 <0>         0.0889
     48 H15        40.2576   73.6141   35.1561 H         1 <0>         0.0644
     49 H16        38.8856   72.8102   35.9915 H         1 <0>         0.0644
     50 H17        39.0101   73.9996   33.3503 H         1 <0>         0.0342
     51 H18        37.7245   72.9962   34.1032 H         1 <0>         0.0342
     52 H19        48.2185   84.3520   40.2962 H         1 <0>         0.3202
     53 H20        49.7480   85.6530   44.9790 H         1 <0>         0.1699
     54 H21        38.8860   73.7198   38.2371 H         1 <0>         0.0633
     55 H22        40.5905   73.8981   37.6989 H         1 <0>         0.0633
     56 H23        40.9486   75.6672   35.7059 H         1 <0>         0.0633
     57 H24        39.4447   76.2964   34.9517 H         1 <0>         0.0633
     58 H25        36.8323   75.2264   33.4096 H         1 <0>         0.4243
     59 H26        45.2315   82.3105   37.1137 H         1 <0>         0.3740
     60 H27        41.6125   76.0412   40.4536 H         1 <0>         0.5024
     61 H28        43.6592   80.4849   37.2699 H         1 <0>         0.3516
@<TRIPOS>BOND
     1    1    2 2
     2    1   20 1
     3    1   34 1
     4    2    3 1
     5    2   21 1
     6    3   22 am
     7    3   27 2
     8    4   16 1
     9    4   31 1
    10    4   32 1
    11    5    6 ar
    12    5   25 ar
    13    5   35 1
    14    6    7 ar
    15    6   36 1
    16    7    8 1
    17    7   23 ar
    18    8   37 1
    19    8   38 1
    20    8   39 1
    21    9   10 1
    22    9   18 2
    23    9   29 1
    24   10   11 2
    25   10   40 1
    26   11   28 1
    27   11   30 1
    28   12   13 1
    29   12   28 1
    30   12   29 2
    31   13   41 1
    32   13   42 1
    33   13   43 1
    34   14   30 1
    35   14   31 1
    36   14   44 1
    37   14   45 1
    38   15   30 1
    39   15   32 1
    40   15   46 1
    41   15   47 1
    42   16   17 1
    43   16   48 1
    44   16   49 1
    45   17   33 1
    46   17   50 1
    47   17   51 1
    48   18   19 1
    49   18   61 1
    50   19   20 2
    51   19   21 1
    52   20   59 1
    53   22   23 1
    54   22   52 1
    55   23   24 ar
    56   24   25 ar
    57   24   26 1
    58   25   53 1
    59   28   60 1
    60   31   54 1
    61   31   55 1
    62   32   56 1
    63   32   57 1
    64   33   58 1
