@<TRIPOS>MOLECULE
~{N}-(2-chloro-6-methyl-phenyl)-2-[[6-[4-(2-hydroxyethyl)piperazin-1-yl]-2-methyl-pyrimidin-4-yl]amino]thiazole-5-carboxamide
60   63    1
SMALL
USER_CHARGES


@<TRIPOS>ATOM
      1 C1          2.8905    1.0688    8.3231 C.2       1 DAS         0.4038 
      2 C2          3.9713    1.9243    8.3671 C.2       1 DAS        -0.3016 
      3 S1          4.5685    2.1789    6.7797 S.3       1 DAS        -0.0612 
      4 C3          3.3441    1.1375    6.1785 C.2       1 DAS         0.6644 
      5 N1          2.5291    0.6169    7.0689 N.2       1 DAS        -0.6461 
      6 N2          3.2675    0.8919    4.7930 N.pl3     1 DAS        -0.8342 
      7 C4          2.3952    0.1019    4.0049 C.ar      1 DAS         0.7029 
      8 C5          2.6085    0.0868    2.6416 C.ar      1 DAS        -0.4500 
      9 C6          1.7377   -0.6944    1.9097 C.ar      1 DAS         0.6918 
     10 N3          0.7329   -1.4101    2.4558 N.pl3     1 DAS        -0.7653 
     11 C7          0.6285   -1.3130    3.7949 C.ar      1 DAS         0.6973 
     12 N4          1.4110   -0.5885    4.6174 N.ar      1 DAS        -0.7143 
     13 C8         -0.4709   -2.0903    4.4354 C.3       1 DAS        -0.1353 
     14 N5          1.9200   -0.7367    0.5229 N.pl3     1 DAS        -0.7672 
     15 C9          1.5400   -1.9653   -0.1857 C.3       1 DAS         0.2006 
     16 C10         2.2590   -2.0516   -1.5339 C.3       1 DAS         0.1680 
     17 N6          2.0340   -0.8383   -2.3295 N.3       1 DAS        -0.7427 
     18 C11         2.5419    0.3340   -1.6066 C.3       1 DAS         0.1680 
     19 C12         1.8332    0.4998   -0.2600 C.3       1 DAS         0.2006 
     20 C13         2.6799   -0.9549   -3.6364 C.3       1 DAS         0.1706 
     21 C14         1.8193   -1.7892   -4.5775 C.3       1 DAS         0.1290 
     22 O1          2.4674   -1.8879   -5.8393 O.3       1 DAS        -0.6048 
     23 C15         4.5926    2.5621    9.4786 C.2       1 DAS         0.7227 
     24 O2          5.5825    3.3245    9.3610 O.2       1 DAS        -0.5936 
     25 N7          4.0056    2.3222   10.7453 N.am      1 DAS        -0.4696 
     26 C16         4.3654    2.8325   12.0181 C.ar      1 DAS         0.0597 
     27 C17         3.4388    3.5826   12.7423 C.ar      1 DAS        -0.0508 
     28 C18         3.7798    4.0907   13.9958 C.ar      1 DAS        -0.1207 
     29 C19         5.0475    3.8487   14.5250 C.ar      1 DAS        -0.1289 
     30 C20         5.9741    3.0986   13.8008 C.ar      1 DAS        -0.1156 
     31 C21         5.6330    2.5906   12.5473 C.ar      1 DAS        -0.0125 
     32 Cl1         6.8138    1.6672   11.6873 Cl        1 DAS        -0.1011 
     33 C22         2.0725    3.8600   12.2035 C.3       1 DAS        -0.0584 
     34 H1          2.3231    0.7380    9.1833 H         1 DAS         0.0463 
     35 H2          3.9878    1.3656    4.1098 H         1 DAS         0.4579 
     36 H3          3.4079    0.6519    2.1761 H         1 DAS         0.1532 
     37 H4         -0.4493   -1.9279    5.5231 H         1 DAS         0.0650 
     38 H5         -0.3357   -3.1608    4.2217 H         1 DAS         0.0650 
     39 H6         -1.4387   -1.7556    4.0338 H         1 DAS         0.0650 
     40 H7          1.8156   -2.8395    0.4225 H         1 DAS         0.0518 
     41 H8          0.4538   -1.9673   -0.3596 H         1 DAS         0.0518 
     42 H9          3.3399   -2.1677   -1.3662 H         1 DAS         0.0410 
     43 H10         1.8802   -2.9175   -2.0967 H         1 DAS         0.0410 
     44 H11         3.6200    0.2137   -1.4246 H         1 DAS         0.0410 
     45 H12         2.3703    1.2386   -2.2085 H         1 DAS         0.0410 
     46 H13         0.7764    0.7459   -0.4408 H         1 DAS         0.0518 
     47 H14         2.3107    1.3201    0.2960 H         1 DAS         0.0518 
     48 H15         2.8172    0.0474   -4.0682 H         1 DAS         0.0480 
     49 H16         3.6597   -1.4410   -3.5191 H         1 DAS         0.0480 
     50 H17         1.6813   -2.7948   -4.1536 H         1 DAS         0.0291 
     51 H18         0.8389   -1.3064   -4.7027 H         1 DAS         0.0291 
     52 H19         1.9974   -2.4553   -6.6561 H         1 DAS         0.4028 
     53 H20         3.1382    1.6512   10.8313 H         1 DAS         0.3239 
     54 H21         3.0654    4.6767   14.5680 H         1 DAS         0.1377 
     55 H22         5.3130    4.2442   15.5011 H         1 DAS         0.1387 
     56 H23         6.9577    2.9195   14.2277 H         1 DAS         0.1481 
     57 H24         1.5078    4.4638   12.9292 H         1 DAS         0.0551 
     58 H25         1.5470    2.9094   12.0296 H         1 DAS         0.0551 
     59 H26         2.1572    4.4109   11.2552 H         1 DAS         0.0551 
     60 H60         0.0745   -2.0129    1.8131 H         1 DAS         0.0000 
@<TRIPOS>BOND
     1    1    5 1    
     2    1    2 2    
     3    1   34 1    
     4    2    3 1    
     5    2   23 1    
     6    3    4 1    
     7    4    5 2    
     8    4    6 1    
     9    6    7 1    
    10    6   35 1    
    11    7   12 ar   
    12    7    8 ar   
    13    8    9 ar   
    14    8   36 1    
    15    9   10 ar   
    16    9   14 1    
    17   10   11 ar   
    18   10   60 1    
    19   11   12 ar   
    20   11   13 1    
    21   13   37 1    
    22   13   38 1    
    23   13   39 1    
    24   14   19 1    
    25   14   15 1    
    26   15   16 1    
    27   15   40 1    
    28   15   41 1    
    29   16   17 1    
    30   16   42 1    
    31   16   43 1    
    32   17   18 1    
    33   17   20 1    
    34   18   19 1    
    35   18   44 1    
    36   18   45 1    
    37   19   46 1    
    38   19   47 1    
    39   20   21 1    
    40   20   48 1    
    41   20   49 1    
    42   21   22 1    
    43   21   50 1    
    44   21   51 1    
    45   22   52 1    
    46   23   24 2    
    47   23   25 am   BACKBONE|DICT|INTERRES
    48   25   26 1    
    49   25   53 1    
    50   26   31 ar   
    51   26   27 ar   
    52   27   28 ar   
    53   27   33 1    
    54   28   29 ar   
    55   28   54 1    
    56   29   30 ar   
    57   29   55 1    
    58   30   31 ar   
    59   30   56 1    
    60   31   32 1    
    61   33   57 1    
    62   33   58 1    
    63   33   59 1    
@<TRIPOS>SUBSTRUCTURE
     1 DAS         1 GROUP             0       ****    0 ROOT    
@<TRIPOS>MOLECULE
~{N}-(2-chloro-6-methyl-phenyl)-2-[[6-[4-(2-hydroxyethyl)piperazin-1-yl]-2-methyl-pyrimidin-4-yl]amino]thiazole-5-carboxamide
59   62    1
SMALL
USER_CHARGES


@<TRIPOS>ATOM
      1 C1          2.8905    1.0688    8.3231 C.2       1 DAS         0.4038 
      2 C2          3.9713    1.9243    8.3671 C.2       1 DAS        -0.3016 
      3 S1          4.5685    2.1789    6.7797 S.3       1 DAS        -0.0612 
      4 C3          3.3441    1.1375    6.1785 C.2       1 DAS         0.6644 
      5 N1          2.5291    0.6169    7.0689 N.2       1 DAS        -0.6461 
      6 N2          3.2675    0.8919    4.7930 N.pl3     1 DAS        -0.8342 
      7 C4          2.3952    0.1019    4.0049 C.ar      1 DAS         0.7029 
      8 C5          2.6085    0.0868    2.6416 C.ar      1 DAS        -0.4500 
      9 C6          1.7377   -0.6944    1.9097 C.ar      1 DAS         0.6918 
     10 N3          0.7329   -1.4101    2.4558 N.ar      1 DAS        -0.7653 
     11 C7          0.6285   -1.3130    3.7949 C.ar      1 DAS         0.6973 
     12 N4          1.4110   -0.5885    4.6174 N.ar      1 DAS        -0.7143 
     13 C8         -0.4709   -2.0903    4.4354 C.3       1 DAS        -0.1353 
     14 N5          1.9200   -0.7367    0.5229 N.pl3     1 DAS        -0.7672 
     15 C9          1.5400   -1.9653   -0.1857 C.3       1 DAS         0.2006 
     16 C10         2.2590   -2.0516   -1.5339 C.3       1 DAS         0.1680 
     17 N6          2.0340   -0.8383   -2.3295 N.3       1 DAS        -0.7427 
     18 C11         2.5419    0.3340   -1.6066 C.3       1 DAS         0.1680 
     19 C12         1.8332    0.4998   -0.2600 C.3       1 DAS         0.2006 
     20 C13         2.6799   -0.9549   -3.6364 C.3       1 DAS         0.1706 
     21 C14         1.8193   -1.7892   -4.5775 C.3       1 DAS         0.1290 
     22 O1          2.4674   -1.8879   -5.8393 O.3       1 DAS        -0.6048 
     23 C15         4.5926    2.5621    9.4786 C.2       1 DAS         0.7227 
     24 O2          5.5825    3.3245    9.3610 O.2       1 DAS        -0.5936 
     25 N7          4.0056    2.3222   10.7453 N.am      1 DAS        -0.4696 
     26 C16         4.3654    2.8325   12.0181 C.ar      1 DAS         0.0597 
     27 C17         3.4388    3.5826   12.7423 C.ar      1 DAS        -0.0508 
     28 C18         3.7798    4.0907   13.9958 C.ar      1 DAS        -0.1207 
     29 C19         5.0475    3.8487   14.5250 C.ar      1 DAS        -0.1289 
     30 C20         5.9741    3.0986   13.8008 C.ar      1 DAS        -0.1156 
     31 C21         5.6330    2.5906   12.5473 C.ar      1 DAS        -0.0125 
     32 Cl1         6.8138    1.6672   11.6873 Cl        1 DAS        -0.1011 
     33 C22         2.0725    3.8600   12.2035 C.3       1 DAS        -0.0584 
     34 H1          2.3231    0.7380    9.1833 H         1 DAS         0.0463 
     35 H2          3.9878    1.3656    4.1098 H         1 DAS         0.4579 
     36 H3          3.4079    0.6519    2.1761 H         1 DAS         0.1532 
     37 H4         -0.4493   -1.9279    5.5231 H         1 DAS         0.0650 
     38 H5         -0.3357   -3.1608    4.2217 H         1 DAS         0.0650 
     39 H6         -1.4387   -1.7556    4.0338 H         1 DAS         0.0650 
     40 H7          1.8156   -2.8395    0.4225 H         1 DAS         0.0518 
     41 H8          0.4538   -1.9673   -0.3596 H         1 DAS         0.0518 
     42 H9          3.3399   -2.1677   -1.3662 H         1 DAS         0.0410 
     43 H10         1.8802   -2.9175   -2.0967 H         1 DAS         0.0410 
     44 H11         3.6200    0.2137   -1.4246 H         1 DAS         0.0410 
     45 H12         2.3703    1.2386   -2.2085 H         1 DAS         0.0410 
     46 H13         0.7764    0.7459   -0.4408 H         1 DAS         0.0518 
     47 H14         2.3107    1.3201    0.2960 H         1 DAS         0.0518 
     48 H15         2.8172    0.0474   -4.0682 H         1 DAS         0.0480 
     49 H16         3.6597   -1.4410   -3.5191 H         1 DAS         0.0480 
     50 H17         1.6813   -2.7948   -4.1536 H         1 DAS         0.0291 
     51 H18         0.8389   -1.3064   -4.7027 H         1 DAS         0.0291 
     52 H19         1.9974   -2.4553   -6.6561 H         1 DAS         0.4028 
     53 H20         3.1382    1.6512   10.8313 H         1 DAS         0.3239 
     54 H21         3.0654    4.6767   14.5680 H         1 DAS         0.1377 
     55 H22         5.3130    4.2442   15.5011 H         1 DAS         0.1387 
     56 H23         6.9577    2.9195   14.2277 H         1 DAS         0.1481 
     57 H24         1.5078    4.4638   12.9292 H         1 DAS         0.0551 
     58 H25         1.5470    2.9094   12.0296 H         1 DAS         0.0551 
     59 H26         2.1572    4.4109   11.2552 H         1 DAS         0.0551 
@<TRIPOS>BOND
     1    1    5 1    
     2    1    2 2    
     3    1   34 1    
     4    2    3 1    
     5    2   23 1    
     6    3    4 1    
     7    4    5 2    
     8    4    6 1    
     9    6    7 1    
    10    6   35 1    
    11    7   12 ar   
    12    7    8 ar   
    13    8    9 ar   
    14    8   36 1    
    15    9   10 ar   
    16    9   14 1    
    17   10   11 ar   
    18   11   12 ar   
    19   11   13 1    
    20   13   37 1    
    21   13   38 1    
    22   13   39 1    
    23   14   19 1    
    24   14   15 1    
    25   15   16 1    
    26   15   40 1    
    27   15   41 1    
    28   16   17 1    
    29   16   42 1    
    30   16   43 1    
    31   17   18 1    
    32   17   20 1    
    33   18   19 1    
    34   18   44 1    
    35   18   45 1    
    36   19   46 1    
    37   19   47 1    
    38   20   21 1    
    39   20   48 1    
    40   20   49 1    
    41   21   22 1    
    42   21   50 1    
    43   21   51 1    
    44   22   52 1    
    45   23   24 2    
    46   23   25 am   BACKBONE|DICT|INTERRES
    47   25   26 1    
    48   25   53 1    
    49   26   31 ar   
    50   26   27 ar   
    51   27   28 ar   
    52   27   33 1    
    53   28   29 ar   
    54   28   54 1    
    55   29   30 ar   
    56   29   55 1    
    57   30   31 ar   
    58   30   56 1    
    59   31   32 1    
    60   33   57 1    
    61   33   58 1    
    62   33   59 1    
@<TRIPOS>SUBSTRUCTURE
     1 DAS         1 GROUP             0       ****    0 ROOT    
@<TRIPOS>MOLECULE
~{N}-(2-chloro-6-methyl-phenyl)-2-[[6-[4-(2-hydroxyethyl)piperazin-1-yl]-2-methyl-pyrimidin-4-yl]amino]thiazole-5-carboxamide
60   63    1
SMALL
USER_CHARGES


@<TRIPOS>ATOM
      1 C1          2.8905    1.0688    8.3231 C.2       1 DAS         0.4038 
      2 C2          3.9713    1.9243    8.3671 C.2       1 DAS        -0.3016 
      3 S1          4.5685    2.1789    6.7797 S.3       1 DAS        -0.0612 
      4 C3          3.3441    1.1375    6.1785 C.2       1 DAS         0.6644 
      5 N1          2.5291    0.6169    7.0689 N.2       1 DAS        -0.6461 
      6 N2          3.2675    0.8919    4.7930 N.pl3     1 DAS        -0.8342 
      7 C4          2.3952    0.1019    4.0049 C.ar      1 DAS         0.7029 
      8 C5          2.6085    0.0868    2.6416 C.ar      1 DAS        -0.4500 
      9 C6          1.7377   -0.6944    1.9097 C.ar      1 DAS         0.6918 
     10 N3          0.7329   -1.4101    2.4558 N.ar      1 DAS        -0.7653 
     11 C7          0.6285   -1.3130    3.7949 C.ar      1 DAS         0.6973 
     12 N4          1.4110   -0.5885    4.6174 N.pl3     1 DAS        -0.7143 
     13 C8         -0.4709   -2.0903    4.4354 C.3       1 DAS        -0.1353 
     14 N5          1.9200   -0.7367    0.5229 N.pl3     1 DAS        -0.7672 
     15 C9          1.5400   -1.9653   -0.1857 C.3       1 DAS         0.2006 
     16 C10         2.2590   -2.0516   -1.5339 C.3       1 DAS         0.1680 
     17 N6          2.0340   -0.8383   -2.3295 N.3       1 DAS        -0.7427 
     18 C11         2.5419    0.3340   -1.6066 C.3       1 DAS         0.1680 
     19 C12         1.8332    0.4998   -0.2600 C.3       1 DAS         0.2006 
     20 C13         2.6799   -0.9549   -3.6364 C.3       1 DAS         0.1706 
     21 C14         1.8193   -1.7892   -4.5775 C.3       1 DAS         0.1290 
     22 O1          2.4674   -1.8879   -5.8393 O.3       1 DAS        -0.6048 
     23 C15         4.5926    2.5621    9.4786 C.2       1 DAS         0.7227 
     24 O2          5.5825    3.3245    9.3610 O.2       1 DAS        -0.5936 
     25 N7          4.0056    2.3222   10.7453 N.am      1 DAS        -0.4696 
     26 C16         4.3654    2.8325   12.0181 C.ar      1 DAS         0.0597 
     27 C17         3.4388    3.5826   12.7423 C.ar      1 DAS        -0.0508 
     28 C18         3.7798    4.0907   13.9958 C.ar      1 DAS        -0.1207 
     29 C19         5.0475    3.8487   14.5250 C.ar      1 DAS        -0.1289 
     30 C20         5.9741    3.0986   13.8008 C.ar      1 DAS        -0.1156 
     31 C21         5.6330    2.5906   12.5473 C.ar      1 DAS        -0.0125 
     32 Cl1         6.8138    1.6672   11.6873 Cl        1 DAS        -0.1011 
     33 C22         2.0725    3.8600   12.2035 C.3       1 DAS        -0.0584 
     34 H1          2.3231    0.7380    9.1833 H         1 DAS         0.0463 
     35 H2          3.9878    1.3656    4.1098 H         1 DAS         0.4579 
     36 H3          3.4079    0.6519    2.1761 H         1 DAS         0.1532 
     37 H4         -0.4493   -1.9279    5.5231 H         1 DAS         0.0650 
     38 H5         -0.3357   -3.1608    4.2217 H         1 DAS         0.0650 
     39 H6         -1.4387   -1.7556    4.0338 H         1 DAS         0.0650 
     40 H7          1.8156   -2.8395    0.4225 H         1 DAS         0.0518 
     41 H8          0.4538   -1.9673   -0.3596 H         1 DAS         0.0518 
     42 H9          3.3399   -2.1677   -1.3662 H         1 DAS         0.0410 
     43 H10         1.8802   -2.9175   -2.0967 H         1 DAS         0.0410 
     44 H11         3.6200    0.2137   -1.4246 H         1 DAS         0.0410 
     45 H12         2.3703    1.2386   -2.2085 H         1 DAS         0.0410 
     46 H13         0.7764    0.7459   -0.4408 H         1 DAS         0.0518 
     47 H14         2.3107    1.3201    0.2960 H         1 DAS         0.0518 
     48 H15         2.8172    0.0474   -4.0682 H         1 DAS         0.0480 
     49 H16         3.6597   -1.4410   -3.5191 H         1 DAS         0.0480 
     50 H17         1.6813   -2.7948   -4.1536 H         1 DAS         0.0291 
     51 H18         0.8389   -1.3064   -4.7027 H         1 DAS         0.0291 
     52 H19         1.9974   -2.4553   -6.6561 H         1 DAS         0.4028 
     53 H20         3.1382    1.6512   10.8313 H         1 DAS         0.3239 
     54 H21         3.0654    4.6767   14.5680 H         1 DAS         0.1377 
     55 H22         5.3130    4.2442   15.5011 H         1 DAS         0.1387 
     56 H23         6.9577    2.9195   14.2277 H         1 DAS         0.1481 
     57 H24         1.5078    4.4638   12.9292 H         1 DAS         0.0551 
     58 H25         1.5470    2.9094   12.0296 H         1 DAS         0.0551 
     59 H26         2.1572    4.4109   11.2552 H         1 DAS         0.0551 
     60 H60         1.2970   -0.5315    5.7100 H         1 DAS         0.0000 
@<TRIPOS>BOND
     1    1    5 1    
     2    1    2 2    
     3    1   34 1    
     4    2    3 1    
     5    2   23 1    
     6    3    4 1    
     7    4    5 2    
     8    4    6 1    
     9    6    7 1    
    10    6   35 1    
    11    7   12 ar   
    12    7    8 ar   
    13    8    9 ar   
    14    8   36 1    
    15    9   10 ar   
    16    9   14 1    
    17   10   11 ar   
    18   11   12 ar   
    19   11   13 1    
    20   12   60 1    
    21   13   37 1    
    22   13   38 1    
    23   13   39 1    
    24   14   19 1    
    25   14   15 1    
    26   15   16 1    
    27   15   40 1    
    28   15   41 1    
    29   16   17 1    
    30   16   42 1    
    31   16   43 1    
    32   17   18 1    
    33   17   20 1    
    34   18   19 1    
    35   18   44 1    
    36   18   45 1    
    37   19   46 1    
    38   19   47 1    
    39   20   21 1    
    40   20   48 1    
    41   20   49 1    
    42   21   22 1    
    43   21   50 1    
    44   21   51 1    
    45   22   52 1    
    46   23   24 2    
    47   23   25 am   BACKBONE|DICT|INTERRES
    48   25   26 1    
    49   25   53 1    
    50   26   31 ar   
    51   26   27 ar   
    52   27   28 ar   
    53   27   33 1    
    54   28   29 ar   
    55   28   54 1    
    56   29   30 ar   
    57   29   55 1    
    58   30   31 ar   
    59   30   56 1    
    60   31   32 1    
    61   33   57 1    
    62   33   58 1    
    63   33   59 1    
@<TRIPOS>SUBSTRUCTURE
     1 DAS         1 GROUP             0       ****    0 ROOT    
@<TRIPOS>MOLECULE
~{N}-(2-chloro-6-methyl-phenyl)-2-[[6-[4-(2-hydroxyethyl)piperazin-1-yl]-2-methyl-pyrimidin-4-yl]amino]thiazole-5-carboxamide
59   62    1
SMALL
USER_CHARGES


@<TRIPOS>ATOM
      1 C1          2.8905    1.0688    8.3231 C.2       1 DAS         0.4038 
      2 C2          3.9713    1.9243    8.3671 C.2       1 DAS        -0.3016 
      3 S1          4.5685    2.1789    6.7797 S.3       1 DAS        -0.0612 
      4 C3          3.3441    1.1375    6.1785 C.2       1 DAS         0.6644 
      5 N1          2.5291    0.6169    7.0689 N.2       1 DAS        -0.6461 
      6 N2          3.2675    0.8919    4.7930 N.pl3     1 DAS        -0.8342 
      7 C4          2.3952    0.1019    4.0049 C.ar      1 DAS         0.7029 
      8 C5          2.6085    0.0868    2.6416 C.ar      1 DAS        -0.4500 
      9 C6          1.7377   -0.6944    1.9097 C.ar      1 DAS         0.6918 
     10 N3          0.7329   -1.4101    2.4558 N.ar      1 DAS        -0.7653 
     11 C7          0.6285   -1.3130    3.7949 C.ar      1 DAS         0.6973 
     12 N4          1.4110   -0.5885    4.6174 N.pl3     1 DAS        -0.7143 
     13 C8         -0.4709   -2.0903    4.4354 C.3       1 DAS        -0.1353 
     14 N5          1.9200   -0.7367    0.5229 N.pl3     1 DAS        -0.7672 
     15 C9          1.5400   -1.9653   -0.1857 C.3       1 DAS         0.2006 
     16 C10         2.2590   -2.0516   -1.5339 C.3       1 DAS         0.1680 
     17 N6          2.0340   -0.8383   -2.3295 N.3       1 DAS        -0.7427 
     18 C11         2.5419    0.3340   -1.6066 C.3       1 DAS         0.1680 
     19 C12         1.8332    0.4998   -0.2600 C.3       1 DAS         0.2006 
     20 C13         2.6799   -0.9549   -3.6364 C.3       1 DAS         0.1706 
     21 C14         1.8193   -1.7892   -4.5775 C.3       1 DAS         0.1290 
     22 O1          2.4674   -1.8879   -5.8393 O.3       1 DAS        -0.6048 
     23 C15         4.5926    2.5621    9.4786 C.2       1 DAS         0.7227 
     24 O2          5.5825    3.3245    9.3610 O.co2     1 DAS        -0.5936 
     25 N7          4.0056    2.3222   10.7453 N.2       1 DAS        -0.4696 
     26 C16         4.3654    2.8325   12.0181 C.ar      1 DAS         0.0597 
     27 C17         3.4388    3.5826   12.7423 C.ar      1 DAS        -0.0508 
     28 C18         3.7798    4.0907   13.9958 C.ar      1 DAS        -0.1207 
     29 C19         5.0475    3.8487   14.5250 C.ar      1 DAS        -0.1289 
     30 C20         5.9741    3.0986   13.8008 C.ar      1 DAS        -0.1156 
     31 C21         5.6330    2.5906   12.5473 C.ar      1 DAS        -0.0125 
     32 Cl1         6.8138    1.6672   11.6873 Cl        1 DAS        -0.1011 
     33 C22         2.0725    3.8600   12.2035 C.3       1 DAS        -0.0584 
     34 H1          2.3231    0.7380    9.1833 H         1 DAS         0.0463 
     35 H2          3.9878    1.3656    4.1098 H         1 DAS         0.4579 
     36 H3          3.4079    0.6519    2.1761 H         1 DAS         0.1532 
     37 H4         -0.4493   -1.9279    5.5231 H         1 DAS         0.0650 
     38 H5         -0.3357   -3.1608    4.2217 H         1 DAS         0.0650 
     39 H6         -1.4387   -1.7556    4.0338 H         1 DAS         0.0650 
     40 H7          1.8156   -2.8395    0.4225 H         1 DAS         0.0518 
     41 H8          0.4538   -1.9673   -0.3596 H         1 DAS         0.0518 
     42 H9          3.3399   -2.1677   -1.3662 H         1 DAS         0.0410 
     43 H10         1.8802   -2.9175   -2.0967 H         1 DAS         0.0410 
     44 H11         3.6200    0.2137   -1.4246 H         1 DAS         0.0410 
     45 H12         2.3703    1.2386   -2.2085 H         1 DAS         0.0410 
     46 H13         0.7764    0.7459   -0.4408 H         1 DAS         0.0518 
     47 H14         2.3107    1.3201    0.2960 H         1 DAS         0.0518 
     48 H15         2.8172    0.0474   -4.0682 H         1 DAS         0.0480 
     49 H16         3.6597   -1.4410   -3.5191 H         1 DAS         0.0480 
     50 H17         1.6813   -2.7948   -4.1536 H         1 DAS         0.0291 
     51 H18         0.8389   -1.3064   -4.7027 H         1 DAS         0.0291 
     52 H19         1.9974   -2.4553   -6.6561 H         1 DAS         0.4028 
     53 H21         3.0654    4.6767   14.5680 H         1 DAS         0.1377 
     54 H22         5.3130    4.2442   15.5011 H         1 DAS         0.1387 
     55 H23         6.9577    2.9195   14.2277 H         1 DAS         0.1481 
     56 H24         1.5078    4.4638   12.9292 H         1 DAS         0.0551 
     57 H25         1.5470    2.9094   12.0296 H         1 DAS         0.0551 
     58 H26         2.1572    4.4109   11.2552 H         1 DAS         0.0551 
     59 H59         1.2970   -0.5315    5.7100 H         1 DAS         0.0000 
@<TRIPOS>BOND
     1    1    5 1    
     2    1    2 2    
     3    1   34 1    
     4    2    3 1    
     5    2   23 1    
     6    3    4 1    
     7    4    5 2    
     8    4    6 1    
     9    6    7 1    
    10    6   35 1    
    11    7   12 ar   
    12    7    8 ar   
    13    8    9 ar   
    14    8   36 1    
    15    9   10 ar   
    16    9   14 1    
    17   10   11 ar   
    18   11   12 ar   
    19   11   13 1    
    20   12   59 1    
    21   13   37 1    
    22   13   38 1    
    23   13   39 1    
    24   14   19 1    
    25   14   15 1    
    26   15   16 1    
    27   15   40 1    
    28   15   41 1    
    29   16   17 1    
    30   16   42 1    
    31   16   43 1    
    32   17   18 1    
    33   17   20 1    
    34   18   19 1    
    35   18   44 1    
    36   18   45 1    
    37   19   46 1    
    38   19   47 1    
    39   20   21 1    
    40   20   48 1    
    41   20   49 1    
    42   21   22 1    
    43   21   50 1    
    44   21   51 1    
    45   22   52 1    
    46   23   24 1    
    47   23   25 2    
    48   25   26 1    
    49   26   31 ar   
    50   26   27 ar   
    51   27   28 ar   
    52   27   33 1    
    53   28   29 ar   
    54   28   53 1    
    55   29   30 ar   
    56   29   54 1    
    57   30   31 ar   
    58   30   55 1    
    59   31   32 1    
    60   33   56 1    
    61   33   57 1    
    62   33   58 1    
@<TRIPOS>SUBSTRUCTURE
     1 DAS         1 GROUP             0       ****    0 ROOT    
@<TRIPOS>MOLECULE
~{N}-(2-chloro-6-methyl-phenyl)-2-[[6-[4-(2-hydroxyethyl)piperazin-1-yl]-2-methyl-pyrimidin-4-yl]amino]thiazole-5-carboxamide
60   63    1
SMALL
USER_CHARGES


@<TRIPOS>ATOM
      1 C1          2.8905    1.0688    8.3231 C.2       1 DAS         0.4038 
      2 C2          3.9713    1.9243    8.3671 C.2       1 DAS        -0.3016 
      3 S1          4.5685    2.1789    6.7797 S.3       1 DAS        -0.0612 
      4 C3          3.3441    1.1375    6.1785 C.2       1 DAS         0.6644 
      5 N1          2.5291    0.6169    7.0689 N.2       1 DAS        -0.6461 
      6 N2          3.2675    0.8919    4.7930 N.pl3     1 DAS        -0.8342 
      7 C4          2.3952    0.1019    4.0049 C.ar      1 DAS         0.7029 
      8 C5          2.6085    0.0868    2.6416 C.ar      1 DAS        -0.4500 
      9 C6          1.7377   -0.6944    1.9097 C.ar      1 DAS         0.6918 
     10 N3          0.7329   -1.4101    2.4558 N.ar      1 DAS        -0.7653 
     11 C7          0.6285   -1.3130    3.7949 C.ar      1 DAS         0.6973 
     12 N4          1.4110   -0.5885    4.6174 N.ar      1 DAS        -0.7143 
     13 C8         -0.4709   -2.0903    4.4354 C.3       1 DAS        -0.1353 
     14 N5          1.9200   -0.7367    0.5229 N.pl3     1 DAS        -0.7672 
     15 C9          1.5400   -1.9653   -0.1857 C.3       1 DAS         0.2006 
     16 C10         2.2590   -2.0516   -1.5339 C.3       1 DAS         0.1680 
     17 N6          2.0340   -0.8383   -2.3295 N.4       1 DAS        -0.7427 
     18 C11         2.5419    0.3340   -1.6066 C.3       1 DAS         0.1680 
     19 C12         1.8332    0.4998   -0.2600 C.3       1 DAS         0.2006 
     20 C13         2.6799   -0.9549   -3.6364 C.3       1 DAS         0.1706 
     21 C14         1.8193   -1.7892   -4.5775 C.3       1 DAS         0.1290 
     22 O1          2.4674   -1.8879   -5.8393 O.3       1 DAS        -0.6048 
     23 C15         4.5926    2.5621    9.4786 C.2       1 DAS         0.7227 
     24 O2          5.5825    3.3245    9.3610 O.2       1 DAS        -0.5936 
     25 N7          4.0056    2.3222   10.7453 N.am      1 DAS        -0.4696 
     26 C16         4.3654    2.8325   12.0181 C.ar      1 DAS         0.0597 
     27 C17         3.4388    3.5826   12.7423 C.ar      1 DAS        -0.0508 
     28 C18         3.7798    4.0907   13.9958 C.ar      1 DAS        -0.1207 
     29 C19         5.0475    3.8487   14.5250 C.ar      1 DAS        -0.1289 
     30 C20         5.9741    3.0986   13.8008 C.ar      1 DAS        -0.1156 
     31 C21         5.6330    2.5906   12.5473 C.ar      1 DAS        -0.0125 
     32 Cl1         6.8138    1.6672   11.6873 Cl        1 DAS        -0.1011 
     33 C22         2.0725    3.8600   12.2035 C.3       1 DAS        -0.0584 
     34 H1          2.3231    0.7380    9.1833 H         1 DAS         0.0463 
     35 H2          3.9878    1.3656    4.1098 H         1 DAS         0.4579 
     36 H3          3.4079    0.6519    2.1761 H         1 DAS         0.1532 
     37 H4         -0.4493   -1.9279    5.5231 H         1 DAS         0.0650 
     38 H5         -0.3357   -3.1608    4.2217 H         1 DAS         0.0650 
     39 H6         -1.4387   -1.7556    4.0338 H         1 DAS         0.0650 
     40 H7          1.8156   -2.8395    0.4225 H         1 DAS         0.0518 
     41 H8          0.4538   -1.9673   -0.3596 H         1 DAS         0.0518 
     42 H9          3.3399   -2.1677   -1.3662 H         1 DAS         0.0410 
     43 H10         1.8802   -2.9175   -2.0967 H         1 DAS         0.0410 
     44 H11         3.6200    0.2137   -1.4246 H         1 DAS         0.0410 
     45 H12         2.3703    1.2386   -2.2085 H         1 DAS         0.0410 
     46 H13         0.7764    0.7459   -0.4408 H         1 DAS         0.0518 
     47 H14         2.3107    1.3201    0.2960 H         1 DAS         0.0518 
     48 H15         2.8172    0.0474   -4.0682 H         1 DAS         0.0480 
     49 H16         3.6597   -1.4410   -3.5191 H         1 DAS         0.0480 
     50 H17         1.6813   -2.7948   -4.1536 H         1 DAS         0.0291 
     51 H18         0.8389   -1.3064   -4.7027 H         1 DAS         0.0291 
     52 H19         1.9974   -2.4553   -6.6561 H         1 DAS         0.4028 
     53 H20         3.1382    1.6512   10.8313 H         1 DAS         0.3239 
     54 H21         3.0654    4.6767   14.5680 H         1 DAS         0.1377 
     55 H22         5.3130    4.2442   15.5011 H         1 DAS         0.1387 
     56 H23         6.9577    2.9195   14.2277 H         1 DAS         0.1481 
     57 H24         1.5078    4.4638   12.9292 H         1 DAS         0.0551 
     58 H25         1.5470    2.9094   12.0296 H         1 DAS         0.0551 
     59 H26         2.1572    4.4109   11.2552 H         1 DAS         0.0551 
     60 H60         0.9536   -0.7148   -2.4953 H         1 DAS         0.0000 
@<TRIPOS>BOND
     1    1    5 1    
     2    1    2 2    
     3    1   34 1    
     4    2    3 1    
     5    2   23 1    
     6    3    4 1    
     7    4    5 2    
     8    4    6 1    
     9    6    7 1    
    10    6   35 1    
    11    7   12 ar   
    12    7    8 ar   
    13    8    9 ar   
    14    8   36 1    
    15    9   10 ar   
    16    9   14 1    
    17   10   11 ar   
    18   11   12 ar   
    19   11   13 1    
    20   13   37 1    
    21   13   38 1    
    22   13   39 1    
    23   14   19 1    
    24   14   15 1    
    25   15   16 1    
    26   15   40 1    
    27   15   41 1    
    28   16   17 1    
    29   16   42 1    
    30   16   43 1    
    31   17   18 1    
    32   17   20 1    
    33   17   60 1    
    34   18   19 1    
    35   18   44 1    
    36   18   45 1    
    37   19   46 1    
    38   19   47 1    
    39   20   21 1    
    40   20   48 1    
    41   20   49 1    
    42   21   22 1    
    43   21   50 1    
    44   21   51 1    
    45   22   52 1    
    46   23   24 2    
    47   23   25 am   BACKBONE|DICT|INTERRES
    48   25   26 1    
    49   25   53 1    
    50   26   31 ar   
    51   26   27 ar   
    52   27   28 ar   
    53   27   33 1    
    54   28   29 ar   
    55   28   54 1    
    56   29   30 ar   
    57   29   55 1    
    58   30   31 ar   
    59   30   56 1    
    60   31   32 1    
    61   33   57 1    
    62   33   58 1    
    63   33   59 1    
@<TRIPOS>SUBSTRUCTURE
     1 DAS         1 GROUP             0       ****    0 ROOT    
@<TRIPOS>MOLECULE
~{N}-(2-chloro-6-methyl-phenyl)-2-[[6-[4-(2-hydroxyethyl)piperazin-1-yl]-2-methyl-pyrimidin-4-yl]amino]thiazole-5-carboxamide
58   61    1
SMALL
USER_CHARGES


@<TRIPOS>ATOM
      1 C1          2.8905    1.0688    8.3231 C.2       1 DAS         0.4038 
      2 C2          3.9713    1.9243    8.3671 C.2       1 DAS        -0.3016 
      3 S1          4.5685    2.1789    6.7797 S.3       1 DAS        -0.0612 
      4 C3          3.3441    1.1375    6.1785 C.2       1 DAS         0.6644 
      5 N1          2.5291    0.6169    7.0689 N.2       1 DAS        -0.6461 
      6 N2          3.2675    0.8919    4.7930 N.pl3     1 DAS        -0.8342 
      7 C4          2.3952    0.1019    4.0049 C.ar      1 DAS         0.7029 
      8 C5          2.6085    0.0868    2.6416 C.ar      1 DAS        -0.4500 
      9 C6          1.7377   -0.6944    1.9097 C.ar      1 DAS         0.6918 
     10 N3          0.7329   -1.4101    2.4558 N.ar      1 DAS        -0.7653 
     11 C7          0.6285   -1.3130    3.7949 C.ar      1 DAS         0.6973 
     12 N4          1.4110   -0.5885    4.6174 N.ar      1 DAS        -0.7143 
     13 C8         -0.4709   -2.0903    4.4354 C.3       1 DAS        -0.1353 
     14 N5          1.9200   -0.7367    0.5229 N.pl3     1 DAS        -0.7672 
     15 C9          1.5400   -1.9653   -0.1857 C.3       1 DAS         0.2006 
     16 C10         2.2590   -2.0516   -1.5339 C.3       1 DAS         0.1680 
     17 N6          2.0340   -0.8383   -2.3295 N.3       1 DAS        -0.7427 
     18 C11         2.5419    0.3340   -1.6066 C.3       1 DAS         0.1680 
     19 C12         1.8332    0.4998   -0.2600 C.3       1 DAS         0.2006 
     20 C13         2.6799   -0.9549   -3.6364 C.3       1 DAS         0.1706 
     21 C14         1.8193   -1.7892   -4.5775 C.3       1 DAS         0.1290 
     22 O1          2.4674   -1.8879   -5.8393 O.3       1 DAS        -0.6048 
     23 C15         4.5926    2.5621    9.4786 C.2       1 DAS         0.7227 
     24 O2          5.5825    3.3245    9.3610 O.co2     1 DAS        -0.5936 
     25 N7          4.0056    2.3222   10.7453 N.2       1 DAS        -0.4696 
     26 C16         4.3654    2.8325   12.0181 C.ar      1 DAS         0.0597 
     27 C17         3.4388    3.5826   12.7423 C.ar      1 DAS        -0.0508 
     28 C18         3.7798    4.0907   13.9958 C.ar      1 DAS        -0.1207 
     29 C19         5.0475    3.8487   14.5250 C.ar      1 DAS        -0.1289 
     30 C20         5.9741    3.0986   13.8008 C.ar      1 DAS        -0.1156 
     31 C21         5.6330    2.5906   12.5473 C.ar      1 DAS        -0.0125 
     32 Cl1         6.8138    1.6672   11.6873 Cl        1 DAS        -0.1011 
     33 C22         2.0725    3.8600   12.2035 C.3       1 DAS        -0.0584 
     34 H1          2.3231    0.7380    9.1833 H         1 DAS         0.0463 
     35 H2          3.9878    1.3656    4.1098 H         1 DAS         0.4579 
     36 H3          3.4079    0.6519    2.1761 H         1 DAS         0.1532 
     37 H4         -0.4493   -1.9279    5.5231 H         1 DAS         0.0650 
     38 H5         -0.3357   -3.1608    4.2217 H         1 DAS         0.0650 
     39 H6         -1.4387   -1.7556    4.0338 H         1 DAS         0.0650 
     40 H7          1.8156   -2.8395    0.4225 H         1 DAS         0.0518 
     41 H8          0.4538   -1.9673   -0.3596 H         1 DAS         0.0518 
     42 H9          3.3399   -2.1677   -1.3662 H         1 DAS         0.0410 
     43 H10         1.8802   -2.9175   -2.0967 H         1 DAS         0.0410 
     44 H11         3.6200    0.2137   -1.4246 H         1 DAS         0.0410 
     45 H12         2.3703    1.2386   -2.2085 H         1 DAS         0.0410 
     46 H13         0.7764    0.7459   -0.4408 H         1 DAS         0.0518 
     47 H14         2.3107    1.3201    0.2960 H         1 DAS         0.0518 
     48 H15         2.8172    0.0474   -4.0682 H         1 DAS         0.0480 
     49 H16         3.6597   -1.4410   -3.5191 H         1 DAS         0.0480 
     50 H17         1.6813   -2.7948   -4.1536 H         1 DAS         0.0291 
     51 H18         0.8389   -1.3064   -4.7027 H         1 DAS         0.0291 
     52 H19         1.9974   -2.4553   -6.6561 H         1 DAS         0.4028 
     53 H21         3.0654    4.6767   14.5680 H         1 DAS         0.1377 
     54 H22         5.3130    4.2442   15.5011 H         1 DAS         0.1387 
     55 H23         6.9577    2.9195   14.2277 H         1 DAS         0.1481 
     56 H24         1.5078    4.4638   12.9292 H         1 DAS         0.0551 
     57 H25         1.5470    2.9094   12.0296 H         1 DAS         0.0551 
     58 H26         2.1572    4.4109   11.2552 H         1 DAS         0.0551 
@<TRIPOS>BOND
     1    1    5 1    
     2    1    2 2    
     3    1   34 1    
     4    2    3 1    
     5    2   23 1    
     6    3    4 1    
     7    4    5 2    
     8    4    6 1    
     9    6    7 1    
    10    6   35 1    
    11    7   12 ar   
    12    7    8 ar   
    13    8    9 ar   
    14    8   36 1    
    15    9   10 ar   
    16    9   14 1    
    17   10   11 ar   
    18   11   12 ar   
    19   11   13 1    
    20   13   37 1    
    21   13   38 1    
    22   13   39 1    
    23   14   19 1    
    24   14   15 1    
    25   15   16 1    
    26   15   40 1    
    27   15   41 1    
    28   16   17 1    
    29   16   42 1    
    30   16   43 1    
    31   17   18 1    
    32   17   20 1    
    33   18   19 1    
    34   18   44 1    
    35   18   45 1    
    36   19   46 1    
    37   19   47 1    
    38   20   21 1    
    39   20   48 1    
    40   20   49 1    
    41   21   22 1    
    42   21   50 1    
    43   21   51 1    
    44   22   52 1    
    45   23   24 1    
    46   23   25 2    
    47   25   26 1    
    48   26   31 ar   
    49   26   27 ar   
    50   27   28 ar   
    51   27   33 1    
    52   28   29 ar   
    53   28   53 1    
    54   29   30 ar   
    55   29   54 1    
    56   30   31 ar   
    57   30   55 1    
    58   31   32 1    
    59   33   56 1    
    60   33   57 1    
    61   33   58 1    
@<TRIPOS>SUBSTRUCTURE
     1 DAS         1 GROUP             0       ****    0 ROOT    
@<TRIPOS>MOLECULE
~{N}-(2-chloro-6-methyl-phenyl)-2-[[6-[4-(2-hydroxyethyl)piperazin-1-yl]-2-methyl-pyrimidin-4-yl]amino]thiazole-5-carboxamide
61   64    1
SMALL
USER_CHARGES


@<TRIPOS>ATOM
      1 C1          2.8905    1.0688    8.3231 C.cat     1 DAS         0.4038 
      2 C2          3.9713    1.9243    8.3671 C.2       1 DAS        -0.3016 
      3 S1          4.5685    2.1789    6.7797 S.3       1 DAS        -0.0612 
      4 C3          3.3441    1.1375    6.1785 C.cat     1 DAS         0.6644 
      5 N1          2.5291    0.6169    7.0689 N.pl3     1 DAS        -0.6461 
      6 N2          3.2675    0.8919    4.7930 N.pl3     1 DAS        -0.8342 
      7 C4          2.3952    0.1019    4.0049 C.ar      1 DAS         0.7029 
      8 C5          2.6085    0.0868    2.6416 C.ar      1 DAS        -0.4500 
      9 C6          1.7377   -0.6944    1.9097 C.ar      1 DAS         0.6918 
     10 N3          0.7329   -1.4101    2.4558 N.pl3     1 DAS        -0.7653 
     11 C7          0.6285   -1.3130    3.7949 C.ar      1 DAS         0.6973 
     12 N4          1.4110   -0.5885    4.6174 N.2       1 DAS        -0.7143 
     13 C8         -0.4709   -2.0903    4.4354 C.3       1 DAS        -0.1353 
     14 N5          1.9200   -0.7367    0.5229 N.pl3     1 DAS        -0.7672 
     15 C9          1.5400   -1.9653   -0.1857 C.3       1 DAS         0.2006 
     16 C10         2.2590   -2.0516   -1.5339 C.3       1 DAS         0.1680 
     17 N6          2.0340   -0.8383   -2.3295 N.3       1 DAS        -0.7427 
     18 C11         2.5419    0.3340   -1.6066 C.3       1 DAS         0.1680 
     19 C12         1.8332    0.4998   -0.2600 C.3       1 DAS         0.2006 
     20 C13         2.6799   -0.9549   -3.6364 C.3       1 DAS         0.1706 
     21 C14         1.8193   -1.7892   -4.5775 C.3       1 DAS         0.1290 
     22 O1          2.4674   -1.8879   -5.8393 O.3       1 DAS        -0.6048 
     23 C15         4.5926    2.5621    9.4786 C.2       1 DAS         0.7227 
     24 O2          5.5825    3.3245    9.3610 O.2       1 DAS        -0.5936 
     25 N7          4.0056    2.3222   10.7453 N.am      1 DAS        -0.4696 
     26 C16         4.3654    2.8325   12.0181 C.ar      1 DAS         0.0597 
     27 C17         3.4388    3.5826   12.7423 C.ar      1 DAS        -0.0508 
     28 C18         3.7798    4.0907   13.9958 C.ar      1 DAS        -0.1207 
     29 C19         5.0475    3.8487   14.5250 C.ar      1 DAS        -0.1289 
     30 C20         5.9741    3.0986   13.8008 C.ar      1 DAS        -0.1156 
     31 C21         5.6330    2.5906   12.5473 C.ar      1 DAS        -0.0125 
     32 Cl1         6.8138    1.6672   11.6873 Cl        1 DAS        -0.1011 
     33 C22         2.0725    3.8600   12.2035 C.3       1 DAS        -0.0584 
     34 H1          2.3231    0.7380    9.1833 H         1 DAS         0.0463 
     35 H3          3.4079    0.6519    2.1761 H         1 DAS         0.1532 
     36 H4         -0.4493   -1.9279    5.5231 H         1 DAS         0.0650 
     37 H5         -0.3357   -3.1608    4.2217 H         1 DAS         0.0650 
     38 H6         -1.4387   -1.7556    4.0338 H         1 DAS         0.0650 
     39 H7          1.8156   -2.8395    0.4225 H         1 DAS         0.0518 
     40 H8          0.4538   -1.9673   -0.3596 H         1 DAS         0.0518 
     41 H9          3.3399   -2.1677   -1.3662 H         1 DAS         0.0410 
     42 H10         1.8802   -2.9175   -2.0967 H         1 DAS         0.0410 
     43 H11         3.6200    0.2137   -1.4246 H         1 DAS         0.0410 
     44 H12         2.3703    1.2386   -2.2085 H         1 DAS         0.0410 
     45 H13         0.7764    0.7459   -0.4408 H         1 DAS         0.0518 
     46 H14         2.3107    1.3201    0.2960 H         1 DAS         0.0518 
     47 H15         2.8172    0.0474   -4.0682 H         1 DAS         0.0480 
     48 H16         3.6597   -1.4410   -3.5191 H         1 DAS         0.0480 
     49 H17         1.6813   -2.7948   -4.1536 H         1 DAS         0.0291 
     50 H18         0.8389   -1.3064   -4.7027 H         1 DAS         0.0291 
     51 H19         1.9974   -2.4553   -6.6561 H         1 DAS         0.4028 
     52 H20         3.1382    1.6512   10.8313 H         1 DAS         0.3239 
     53 H21         3.0654    4.6767   14.5680 H         1 DAS         0.1377 
     54 H22         5.3130    4.2442   15.5011 H         1 DAS         0.1387 
     55 H23         6.9577    2.9195   14.2277 H         1 DAS         0.1481 
     56 H24         1.5078    4.4638   12.9292 H         1 DAS         0.0551 
     57 H25         1.5470    2.9094   12.0296 H         1 DAS         0.0551 
     58 H26         2.1572    4.4109   11.2552 H         1 DAS         0.0551 
     59 H59         1.6759   -0.0682    6.9559 H         1 DAS         0.0000 
     60 H60         0.0745   -2.0129    1.8131 H         1 DAS         0.0000 
     61 H61         4.0766    1.4626    4.3138 H         1 DAS         0.0000 
@<TRIPOS>BOND
     1    1    5 ar   
     2    1    2 2    
     3    1   34 1    
     4    2    3 1    
     5    2   23 1    
     6    3    4 1    
     7    4    5 ar   
     8    4    6 ar   
     9    5   59 1    
    10    6    7 2    
    11    6   61 1    
    12    7   12 ar   
    13    7    8 ar   
    14    8    9 ar   
    15    8   35 1    
    16    9   10 ar   
    17    9   14 1    
    18   10   11 ar   
    19   10   60 1    
    20   11   12 ar   
    21   11   13 1    
    22   13   36 1    
    23   13   37 1    
    24   13   38 1    
    25   14   19 1    
    26   14   15 1    
    27   15   16 1    
    28   15   39 1    
    29   15   40 1    
    30   16   17 1    
    31   16   41 1    
    32   16   42 1    
    33   17   18 1    
    34   17   20 1    
    35   18   19 1    
    36   18   43 1    
    37   18   44 1    
    38   19   45 1    
    39   19   46 1    
    40   20   21 1    
    41   20   47 1    
    42   20   48 1    
    43   21   22 1    
    44   21   49 1    
    45   21   50 1    
    46   22   51 1    
    47   23   24 2    
    48   23   25 am   BACKBONE|DICT|INTERRES
    49   25   26 1    
    50   25   52 1    
    51   26   31 ar   
    52   26   27 ar   
    53   27   28 ar   
    54   27   33 1    
    55   28   29 ar   
    56   28   53 1    
    57   29   30 ar   
    58   29   54 1    
    59   30   31 ar   
    60   30   55 1    
    61   31   32 1    
    62   33   56 1    
    63   33   57 1    
    64   33   58 1    
@<TRIPOS>SUBSTRUCTURE
     1 DAS         1 GROUP             0       ****    0 ROOT    
