@<TRIPOS>MOLECULE
~{N}-(2-chloro-6-methyl-phenyl)-2-[[6-[4-(2-hydroxyethyl)piperazin-1-yl]-2-methyl-pyrimidin-4-yl]amino]thiazole-5-carboxamide
   59    62     0     0     0
SMALL
USER_CHARGES

@<TRIPOS>ATOM
      1 C1          2.8905    1.0688    8.3231 C.2       1 DAS         0.4038
      2 C2          3.9713    1.9243    8.3671 C.2       1 DAS        -0.3015
      3 S1          4.5685    2.1789    6.7797 S.3       1 DAS        -0.0613
      4 C3          3.3441    1.1375    6.1785 C.2       1 DAS         0.6645
      5 N1          2.5291    0.6169    7.0689 N.2       1 DAS        -0.6461
      6 N2          3.2675    0.8919    4.7930 N.pl3     1 DAS        -0.8342
      7 C4          2.3952    0.1019    4.0049 C.ar      1 DAS         0.7028
      8 C5          2.6085    0.0868    2.6416 C.ar      1 DAS        -0.4500
      9 C6          1.7377   -0.6944    1.9097 C.ar      1 DAS         0.6921
     10 N3          0.7329   -1.4101    2.4558 N.ar      1 DAS        -0.7653
     11 C7          0.6285   -1.3130    3.7949 C.ar      1 DAS         0.6973
     12 N4          1.4110   -0.5885    4.6174 N.ar      1 DAS        -0.7143
     13 C8         -0.4709   -2.0903    4.4354 C.3       1 DAS        -0.1354
     14 N5          1.9200   -0.7367    0.5229 N.pl3     1 DAS        -0.7676
     15 C9          1.5400   -1.9653   -0.1857 C.3       1 DAS         0.2009
     16 C10         2.2590   -2.0516   -1.5339 C.3       1 DAS         0.1680
     17 N6          2.0340   -0.8383   -2.3295 N.3       1 DAS        -0.7428
     18 C11         2.5419    0.3340   -1.6066 C.3       1 DAS         0.1680
     19 C12         1.8332    0.4998   -0.2600 C.3       1 DAS         0.2009
     20 C13         2.6799   -0.9549   -3.6364 C.3       1 DAS         0.1705
     21 C14         1.8193   -1.7892   -4.5775 C.3       1 DAS         0.1287
     22 O1          2.4674   -1.8879   -5.8393 O.3       1 DAS        -0.6048
     23 C15         4.5926    2.5621    9.4786 C.2       1 DAS         0.7227
     24 O2          5.5825    3.3245    9.3610 O.2       1 DAS        -0.5937
     25 N7          4.0056    2.3222   10.7453 N.am      1 DAS        -0.4696
     26 C16         4.3654    2.8325   12.0181 C.ar      1 DAS         0.0597
     27 C17         3.4388    3.5826   12.7423 C.ar      1 DAS        -0.0507
     28 C18         3.7798    4.0907   13.9958 C.ar      1 DAS        -0.1207
     29 C19         5.0475    3.8487   14.5250 C.ar      1 DAS        -0.1288
     30 C20         5.9741    3.0986   13.8008 C.ar      1 DAS        -0.1154
     31 C21         5.6330    2.5905   12.5473 C.ar      1 DAS        -0.0124
     32 Cl1         6.8138    1.6671   11.6873 Cl        1 DAS        -0.1012
     33 C22         2.0725    3.8600   12.2035 C.3       1 DAS        -0.0583
     34 H1          2.3231    0.7380    9.1833 H         1 DAS         0.0462
     35 H2          3.9788    1.3768    4.2529 H         1 DAS         0.4579
     36 H3          3.4079    0.6519    2.1761 H         1 DAS         0.1532
     37 H4         -0.1214   -3.0940    4.7072 H         1 DAS         0.0650
     38 H5         -0.8357   -1.5916    5.3429 H         1 DAS         0.0650
     39 H6         -1.3319   -2.1924    3.7617 H         1 DAS         0.0650
     40 H7          1.8048   -2.8449    0.4141 H         1 DAS         0.0518
     41 H8          0.4529   -1.9833   -0.3412 H         1 DAS         0.0518
     42 H9          3.3329   -2.2115   -1.3664 H         1 DAS         0.0410
     43 H10         1.8784   -2.9294   -2.0699 H         1 DAS         0.0410
     44 H11         3.6250    0.2505   -1.4434 H         1 DAS         0.0410
     45 H12         2.3708    1.2422   -2.1973 H         1 DAS         0.0410
     46 H13         2.3023    1.3276    0.2864 H         1 DAS         0.0518
     47 H14         0.7798    0.7641   -0.4227 H         1 DAS         0.0518
     48 H15         3.6707   -1.4169   -3.5098 H         1 DAS         0.0480
     49 H16         2.8202    0.0510   -4.0590 H         1 DAS         0.0480
     50 H17         0.8459   -1.3141   -4.7340 H         1 DAS         0.0291
     51 H18         1.6645   -2.7981   -4.1813 H         1 DAS         0.0291
     52 H19         1.8915   -2.4236   -6.4082 H         1 DAS         0.4027
     53 H20         3.1891    1.7159   10.7527 H         1 DAS         0.3239
     54 H21         3.0654    4.6767   14.5680 H         1 DAS         0.1377
     55 H22         5.3130    4.2442   15.5010 H         1 DAS         0.1386
     56 H23         6.9577    2.9195   14.2277 H         1 DAS         0.1482
     57 H24         1.3770    3.0708   12.5103 H         1 DAS         0.0551
     58 H25         1.6925    4.8226   12.5661 H         1 DAS         0.0551
     59 H26         2.0828    3.9120   11.1081 H         1 DAS         0.0551
@<TRIPOS>BOND
     1    1    5 1
     2    1    2 2
     3    2    3 1
     4    3    4 1
     5    4    5 2
     6    4    6 1
     7    6    7 1
     8    7   12 ar
     9    7    8 ar
    10    8    9 ar
    11    9   10 ar
    12   10   11 ar
    13   11   12 ar
    14   11   13 1
    15    9   14 1
    16   14   19 1
    17   14   15 1
    18   15   16 1
    19   16   17 1
    20   17   18 1
    21   18   19 1
    22   17   20 1
    23   20   21 1
    24   21   22 1
    25    2   23 1
    26   23   24 2
    27   23   25 am
    28   25   26 1
    29   26   31 ar
    30   26   27 ar
    31   27   28 ar
    32   28   29 ar
    33   29   30 ar
    34   30   31 ar
    35   31   32 1
    36   27   33 1
    37    1   34 1
    38    6   35 1
    39    8   36 1
    40   13   37 1
    41   13   38 1
    42   13   39 1
    43   15   40 1
    44   15   41 1
    45   16   42 1
    46   16   43 1
    47   18   44 1
    48   18   45 1
    49   19   46 1
    50   19   47 1
    51   20   48 1
    52   20   49 1
    53   21   50 1
    54   21   51 1
    55   22   52 1
    56   25   53 1
    57   28   54 1
    58   29   55 1
    59   30   56 1
    60   33   57 1
    61   33   58 1
    62   33   59 1
