@<TRIPOS>MOLECULE
~{N}-(2-chloro-6-methyl-phenyl)-2-[[6-[4-(2-hydroxyethyl)piperazin-1-yl]-2-methyl-pyrimidin-1-ium-4-yl]amino]thiazole-5-carboxamide
   60    63     0     0     0
SMALL
USER_CHARGES

@<TRIPOS>ATOM
      1 C1          2.8905    1.0688    8.3231 C.2       1 <0>         0.3739
      2 C2          3.9713    1.9243    8.3671 C.2       1 <0>        -0.2542
      3 S1          4.5685    2.1789    6.7797 S.3       1 <0>         0.0627
      4 C3          3.3441    1.1375    6.1785 C.2       1 <0>         0.5502
      5 N1          2.5291    0.6169    7.0689 N.2       1 <0>        -0.6145
      6 N2          3.2675    0.8919    4.7930 N.pl3     1 <0>        -0.7701
      7 C4          2.3952    0.1019    4.0049 C.ar      1 <0>         0.7823
      8 C5          2.6085    0.0868    2.6416 C.ar      1 <0>        -0.4051
      9 C6          1.7377   -0.6944    1.9097 C.ar      1 <0>         0.3314
     10 N3          0.7329   -1.4101    2.4558 N.ar      1 <0>        -0.3751
     11 C7          0.6285   -1.3130    3.7949 C.ar      1 <0>         0.6244
     12 N4          1.4110   -0.5885    4.6174 N.ar      1 <0>        -0.6783
     13 C8         -0.4709   -2.0903    4.4354 C.3       1 <0>        -0.1757
     14 N5          1.9200   -0.7367    0.5229 N.pl3     1 <0>        -0.6639
     15 C9          1.5400   -1.9653   -0.1857 C.3       1 <0>         0.1940
     16 C10         2.2590   -2.0516   -1.5339 C.3       1 <0>         0.1684
     17 N6          2.0340   -0.8383   -2.3295 N.3       1 <0>        -0.7447
     18 C11         2.5419    0.3340   -1.6066 C.3       1 <0>         0.1684
     19 C12         1.8332    0.4998   -0.2600 C.3       1 <0>         0.1940
     20 C13         2.6799   -0.9549   -3.6364 C.3       1 <0>         0.1651
     21 C14         1.8193   -1.7892   -4.5775 C.3       1 <0>         0.1333
     22 O1          2.4674   -1.8879   -5.8393 O.3       1 <0>        -0.5981
     23 C15         4.5926    2.5621    9.4786 C.2       1 <0>         0.7115
     24 O2          5.5825    3.3245    9.3610 O.2       1 <0>        -0.5753
     25 N7          4.0056    2.3222   10.7453 N.am      1 <0>        -0.4545
     26 C16         4.3654    2.8325   12.0181 C.ar      1 <0>         0.0367
     27 C17         3.4388    3.5826   12.7423 C.ar      1 <0>        -0.0461
     28 C18         3.7798    4.0907   13.9958 C.ar      1 <0>        -0.1184
     29 C19         5.0475    3.8487   14.5250 C.ar      1 <0>        -0.1144
     30 C20         5.9741    3.0986   13.8008 C.ar      1 <0>        -0.1118
     31 C21         5.6330    2.5906   12.5473 C.ar      1 <0>        -0.0027
     32 Cl1         6.8138    1.6672   11.6873 Cl        1 <0>        -0.0993
     33 C22         2.0725    3.8600   12.2035 C.3       1 <0>        -0.0594
     34 H1          2.3231    0.7380    9.1833 H         1 <0>         0.0626
     35 H2          3.9878    1.3656    4.1098 H         1 <0>         0.4756
     36 H3          3.4079    0.6519    2.1761 H         1 <0>         0.1873
     37 H4         -0.4493   -1.9279    5.5231 H         1 <0>         0.0976
     38 H5         -0.3357   -3.1608    4.2217 H         1 <0>         0.0976
     39 H6         -1.4387   -1.7556    4.0338 H         1 <0>         0.0976
     40 H7          1.8156   -2.8395    0.4225 H         1 <0>         0.0607
     41 H8          0.4538   -1.9673   -0.3596 H         1 <0>         0.0607
     42 H9          3.3399   -2.1677   -1.3662 H         1 <0>         0.0604
     43 H10         1.8802   -2.9175   -2.0967 H         1 <0>         0.0604
     44 H11         3.6200    0.2137   -1.4246 H         1 <0>         0.0604
     45 H12         2.3703    1.2386   -2.2085 H         1 <0>         0.0604
     46 H13         0.7764    0.7459   -0.4408 H         1 <0>         0.0607
     47 H14         2.3107    1.3201    0.2960 H         1 <0>         0.0607
     48 H15         2.8172    0.0474   -4.0682 H         1 <0>         0.0603
     49 H16         3.6597   -1.4410   -3.5191 H         1 <0>         0.0603
     50 H17         1.6813   -2.7948   -4.1536 H         1 <0>         0.0297
     51 H18         0.8389   -1.3064   -4.7027 H         1 <0>         0.0297
     52 H19         1.9974   -2.4553   -6.6561 H         1 <0>         0.4149
     53 H20         3.1382    1.6512   10.8313 H         1 <0>         0.3261
     54 H21         3.0654    4.6767   14.5680 H         1 <0>         0.1453
     55 H22         5.3130    4.2442   15.5011 H         1 <0>         0.1480
     56 H23         6.9577    2.9195   14.2277 H         1 <0>         0.1561
     57 H24         1.5078    4.4638   12.9292 H         1 <0>         0.0553
     58 H25         1.5470    2.9094   12.0296 H         1 <0>         0.0553
     59 H26         2.1572    4.4109   11.2552 H         1 <0>         0.0553
     60 H27         0.0745   -2.0129    1.8131 H         1 <0>         0.3264
@<TRIPOS>BOND
     1    1    5 1
     2    1    2 2
     3    1   34 1
     4    2    3 1
     5    2   23 1
     6    3    4 1
     7    4    5 2
     8    4    6 1
     9    6    7 1
    10    6   35 1
    11    7   12 ar
    12    7    8 ar
    13    8    9 ar
    14    8   36 1
    15    9   10 ar
    16    9   14 1
    17   10   11 ar
    18   10   60 1
    19   11   12 ar
    20   11   13 1
    21   13   37 1
    22   13   38 1
    23   13   39 1
    24   14   19 1
    25   14   15 1
    26   15   16 1
    27   15   40 1
    28   15   41 1
    29   16   17 1
    30   16   42 1
    31   16   43 1
    32   17   18 1
    33   17   20 1
    34   18   19 1
    35   18   44 1
    36   18   45 1
    37   19   46 1
    38   19   47 1
    39   20   21 1
    40   20   48 1
    41   20   49 1
    42   21   22 1
    43   21   50 1
    44   21   51 1
    45   22   52 1
    46   23   24 2
    47   23   25 am
    48   25   26 1
    49   25   53 1
    50   26   31 ar
    51   26   27 ar
    52   27   28 ar
    53   27   33 1
    54   28   29 ar
    55   28   54 1
    56   29   30 ar
    57   29   55 1
    58   30   31 ar
    59   30   56 1
    60   31   32 1
    61   33   57 1
    62   33   58 1
    63   33   59 1
@<TRIPOS>MOLECULE
~{N}-(2-chloro-6-methyl-phenyl)-2-[[6-[4-(2-hydroxyethyl)piperazin-1-yl]-2-methyl-pyrimidin-4-yl]amino]thiazole-5-carboxamide
   59    62     0     0     0
SMALL
USER_CHARGES

@<TRIPOS>ATOM
      1 C1          2.8905    1.0688    8.3231 C.2       1 <0>         0.4038
      2 C2          3.9713    1.9243    8.3671 C.2       1 <0>        -0.3021
      3 S1          4.5685    2.1789    6.7797 S.3       1 <0>        -0.0605
      4 C3          3.3441    1.1375    6.1785 C.2       1 <0>         0.6639
      5 N1          2.5291    0.6169    7.0689 N.2       1 <0>        -0.6460
      6 N2          3.2675    0.8919    4.7930 N.pl3     1 <0>        -0.8337
      7 C4          2.3952    0.1019    4.0049 C.ar      1 <0>         0.7028
      8 C5          2.6085    0.0868    2.6416 C.ar      1 <0>        -0.4499
      9 C6          1.7377   -0.6944    1.9097 C.ar      1 <0>         0.6918
     10 N3          0.7329   -1.4101    2.4558 N.ar      1 <0>        -0.7652
     11 C7          0.6285   -1.3130    3.7949 C.ar      1 <0>         0.6975
     12 N4          1.4110   -0.5885    4.6174 N.ar      1 <0>        -0.7143
     13 C8         -0.4709   -2.0903    4.4354 C.3       1 <0>        -0.1350
     14 N5          1.9200   -0.7367    0.5229 N.pl3     1 <0>        -0.7673
     15 C9          1.5400   -1.9653   -0.1857 C.3       1 <0>         0.2008
     16 C10         2.2590   -2.0516   -1.5339 C.3       1 <0>         0.1678
     17 N6          2.0340   -0.8383   -2.3295 N.3       1 <0>        -0.7428
     18 C11         2.5419    0.3340   -1.6066 C.3       1 <0>         0.1678
     19 C12         1.8332    0.4998   -0.2600 C.3       1 <0>         0.2008
     20 C13         2.6799   -0.9549   -3.6364 C.3       1 <0>         0.1708
     21 C14         1.8193   -1.7892   -4.5775 C.3       1 <0>         0.1297
     22 O1          2.4674   -1.8879   -5.8393 O.3       1 <0>        -0.6054
     23 C15         4.5926    2.5621    9.4786 C.2       1 <0>         0.7230
     24 O2          5.5825    3.3245    9.3610 O.2       1 <0>        -0.5932
     25 N7          4.0056    2.3222   10.7453 N.am      1 <0>        -0.4698
     26 C16         4.3654    2.8325   12.0181 C.ar      1 <0>         0.0598
     27 C17         3.4388    3.5826   12.7423 C.ar      1 <0>        -0.0510
     28 C18         3.7798    4.0907   13.9958 C.ar      1 <0>        -0.1207
     29 C19         5.0475    3.8487   14.5250 C.ar      1 <0>        -0.1291
     30 C20         5.9741    3.0986   13.8008 C.ar      1 <0>        -0.1152
     31 C21         5.6330    2.5906   12.5473 C.ar      1 <0>        -0.0127
     32 Cl1         6.8138    1.6672   11.6873 Cl        1 <0>        -0.1011
     33 C22         2.0725    3.8600   12.2035 C.3       1 <0>        -0.0581
     34 H1          2.3231    0.7380    9.1833 H         1 <0>         0.0465
     35 H2          3.9878    1.3656    4.1098 H         1 <0>         0.4576
     36 H3          3.4079    0.6519    2.1761 H         1 <0>         0.1532
     37 H4         -0.4493   -1.9279    5.5231 H         1 <0>         0.0648
     38 H5         -0.3357   -3.1608    4.2217 H         1 <0>         0.0648
     39 H6         -1.4387   -1.7556    4.0338 H         1 <0>         0.0648
     40 H7          1.8156   -2.8395    0.4225 H         1 <0>         0.0518
     41 H8          0.4538   -1.9673   -0.3596 H         1 <0>         0.0518
     42 H9          3.3399   -2.1677   -1.3662 H         1 <0>         0.0409
     43 H10         1.8802   -2.9175   -2.0967 H         1 <0>         0.0409
     44 H11         3.6200    0.2137   -1.4246 H         1 <0>         0.0409
     45 H12         2.3703    1.2386   -2.2085 H         1 <0>         0.0409
     46 H13         0.7764    0.7459   -0.4408 H         1 <0>         0.0518
     47 H14         2.3107    1.3201    0.2960 H         1 <0>         0.0518
     48 H15         2.8172    0.0474   -4.0682 H         1 <0>         0.0481
     49 H16         3.6597   -1.4410   -3.5191 H         1 <0>         0.0481
     50 H17         1.6813   -2.7948   -4.1536 H         1 <0>         0.0290
     51 H18         0.8389   -1.3064   -4.7027 H         1 <0>         0.0290
     52 H19         1.9974   -2.4553   -6.6561 H         1 <0>         0.4030
     53 H20         3.1382    1.6512   10.8313 H         1 <0>         0.3238
     54 H21         3.0654    4.6767   14.5680 H         1 <0>         0.1376
     55 H22         5.3130    4.2442   15.5011 H         1 <0>         0.1386
     56 H23         6.9577    2.9195   14.2277 H         1 <0>         0.1481
     57 H24         1.5078    4.4638   12.9292 H         1 <0>         0.0551
     58 H25         1.5470    2.9094   12.0296 H         1 <0>         0.0551
     59 H26         2.1572    4.4109   11.2552 H         1 <0>         0.0551
@<TRIPOS>BOND
     1    1    5 1
     2    1    2 2
     3    1   34 1
     4    2    3 1
     5    2   23 1
     6    3    4 1
     7    4    5 2
     8    4    6 1
     9    6    7 1
    10    6   35 1
    11    7   12 ar
    12    7    8 ar
    13    8    9 ar
    14    8   36 1
    15    9   10 ar
    16    9   14 1
    17   10   11 ar
    18   11   12 ar
    19   11   13 1
    20   13   37 1
    21   13   38 1
    22   13   39 1
    23   14   19 1
    24   14   15 1
    25   15   16 1
    26   15   40 1
    27   15   41 1
    28   16   17 1
    29   16   42 1
    30   16   43 1
    31   17   18 1
    32   17   20 1
    33   18   19 1
    34   18   44 1
    35   18   45 1
    36   19   46 1
    37   19   47 1
    38   20   21 1
    39   20   48 1
    40   20   49 1
    41   21   22 1
    42   21   50 1
    43   21   51 1
    44   22   52 1
    45   23   24 2
    46   23   25 am
    47   25   26 1
    48   25   53 1
    49   26   31 ar
    50   26   27 ar
    51   27   28 ar
    52   27   33 1
    53   28   29 ar
    54   28   54 1
    55   29   30 ar
    56   29   55 1
    57   30   31 ar
    58   30   56 1
    59   31   32 1
    60   33   57 1
    61   33   58 1
    62   33   59 1
@<TRIPOS>MOLECULE
~{N}-(2-chloro-6-methyl-phenyl)-2-[[6-[4-(2-hydroxyethyl)piperazin-1-yl]-2-methyl-pyrimidin-3-ium-4-yl]amino]thiazole-5-carboxamide
   60    63     0     0     0
SMALL
USER_CHARGES

@<TRIPOS>ATOM
      1 C1          2.8905    1.0688    8.3231 C.2       1 <0>         0.3873
      2 C2          3.9713    1.9243    8.3671 C.2       1 <0>        -0.2753
      3 S1          4.5685    2.1789    6.7797 S.3       1 <0>         0.1495
      4 C3          3.3441    1.1375    6.1785 C.2       1 <0>         0.5160
      5 N1          2.5291    0.6169    7.0689 N.2       1 <0>        -0.6995
      6 N2          3.2675    0.8919    4.7930 N.pl3     1 <0>        -0.7013
      7 C4          2.3952    0.1019    4.0049 C.ar      1 <0>         0.3318
      8 C5          2.6085    0.0868    2.6416 C.ar      1 <0>        -0.4045
      9 C6          1.7377   -0.6944    1.9097 C.ar      1 <0>         0.7756
     10 N3          0.7329   -1.4101    2.4558 N.ar      1 <0>        -0.7369
     11 C7          0.6285   -1.3130    3.7949 C.ar      1 <0>         0.6284
     12 N4          1.4110   -0.5885    4.6174 N.ar      1 <0>        -0.3356
     13 C8         -0.4709   -2.0903    4.4354 C.3       1 <0>        -0.1741
     14 N5          1.9200   -0.7367    0.5229 N.pl3     1 <0>        -0.7265
     15 C9          1.5400   -1.9653   -0.1857 C.3       1 <0>         0.1964
     16 C10         2.2590   -2.0516   -1.5339 C.3       1 <0>         0.1655
     17 N6          2.0340   -0.8383   -2.3295 N.3       1 <0>        -0.7453
     18 C11         2.5419    0.3340   -1.6066 C.3       1 <0>         0.1655
     19 C12         1.8332    0.4998   -0.2600 C.3       1 <0>         0.1964
     20 C13         2.6799   -0.9549   -3.6364 C.3       1 <0>         0.1665
     21 C14         1.8193   -1.7892   -4.5775 C.3       1 <0>         0.1323
     22 O1          2.4674   -1.8879   -5.8393 O.3       1 <0>        -0.5995
     23 C15         4.5926    2.5621    9.4786 C.2       1 <0>         0.7135
     24 O2          5.5825    3.3245    9.3610 O.2       1 <0>        -0.5664
     25 N7          4.0056    2.3222   10.7453 N.am      1 <0>        -0.4679
     26 C16         4.3654    2.8325   12.0181 C.ar      1 <0>         0.0302
     27 C17         3.4388    3.5826   12.7423 C.ar      1 <0>        -0.0626
     28 C18         3.7798    4.0907   13.9958 C.ar      1 <0>        -0.1245
     29 C19         5.0475    3.8487   14.5250 C.ar      1 <0>        -0.1037
     30 C20         5.9741    3.0986   13.8008 C.ar      1 <0>        -0.1196
     31 C21         5.6330    2.5906   12.5473 C.ar      1 <0>         0.0332
     32 Cl1         6.8138    1.6672   11.6873 Cl        1 <0>        -0.0802
     33 C22         2.0725    3.8600   12.2035 C.3       1 <0>        -0.0543
     34 H1          2.3231    0.7380    9.1833 H         1 <0>         0.0619
     35 H2          3.9878    1.3656    4.1098 H         1 <0>         0.4764
     36 H3          3.4079    0.6519    2.1761 H         1 <0>         0.1861
     37 H4         -0.4493   -1.9279    5.5231 H         1 <0>         0.0972
     38 H5         -0.3357   -3.1608    4.2217 H         1 <0>         0.0972
     39 H6         -1.4387   -1.7556    4.0338 H         1 <0>         0.0972
     40 H7          1.8156   -2.8395    0.4225 H         1 <0>         0.0704
     41 H8          0.4538   -1.9673   -0.3596 H         1 <0>         0.0704
     42 H9          3.3399   -2.1677   -1.3662 H         1 <0>         0.0571
     43 H10         1.8802   -2.9175   -2.0967 H         1 <0>         0.0571
     44 H11         3.6200    0.2137   -1.4246 H         1 <0>         0.0571
     45 H12         2.3703    1.2386   -2.2085 H         1 <0>         0.0571
     46 H13         0.7764    0.7459   -0.4408 H         1 <0>         0.0704
     47 H14         2.3107    1.3201    0.2960 H         1 <0>         0.0704
     48 H15         2.8172    0.0474   -4.0682 H         1 <0>         0.0580
     49 H16         3.6597   -1.4410   -3.5191 H         1 <0>         0.0580
     50 H17         1.6813   -2.7948   -4.1536 H         1 <0>         0.0309
     51 H18         0.8389   -1.3064   -4.7027 H         1 <0>         0.0309
     52 H19         1.9974   -2.4553   -6.6561 H         1 <0>         0.4134
     53 H20         3.1382    1.6512   10.8313 H         1 <0>         0.3212
     54 H21         3.0654    4.6767   14.5680 H         1 <0>         0.1453
     55 H22         5.3130    4.2442   15.5011 H         1 <0>         0.1497
     56 H23         6.9577    2.9195   14.2277 H         1 <0>         0.1579
     57 H24         1.5078    4.4638   12.9292 H         1 <0>         0.0483
     58 H25         1.5470    2.9094   12.0296 H         1 <0>         0.0483
     59 H26         2.1572    4.4109   11.2552 H         1 <0>         0.0483
     60 H27         1.2970   -0.5315    5.7100 H         1 <0>         0.3529
@<TRIPOS>BOND
     1    1    5 1
     2    1    2 2
     3    1   34 1
     4    2    3 1
     5    2   23 1
     6    3    4 1
     7    4    5 2
     8    4    6 1
     9    6    7 1
    10    6   35 1
    11    7   12 ar
    12    7    8 ar
    13    8    9 ar
    14    8   36 1
    15    9   10 ar
    16    9   14 1
    17   10   11 ar
    18   11   12 ar
    19   11   13 1
    20   12   60 1
    21   13   37 1
    22   13   38 1
    23   13   39 1
    24   14   19 1
    25   14   15 1
    26   15   16 1
    27   15   40 1
    28   15   41 1
    29   16   17 1
    30   16   42 1
    31   16   43 1
    32   17   18 1
    33   17   20 1
    34   18   19 1
    35   18   44 1
    36   18   45 1
    37   19   46 1
    38   19   47 1
    39   20   21 1
    40   20   48 1
    41   20   49 1
    42   21   22 1
    43   21   50 1
    44   21   51 1
    45   22   52 1
    46   23   24 2
    47   23   25 am
    48   25   26 1
    49   25   53 1
    50   26   31 ar
    51   26   27 ar
    52   27   28 ar
    53   27   33 1
    54   28   29 ar
    55   28   54 1
    56   29   30 ar
    57   29   55 1
    58   30   31 ar
    59   30   56 1
    60   31   32 1
    61   33   57 1
    62   33   58 1
    63   33   59 1
@<TRIPOS>MOLECULE
(5~{Z})-~{N}-(2-chloro-6-methyl-phenyl)-2-[[6-[4-(2-hydroxyethyl)piperazin-1-yl]-2-methyl-pyrimidin-3-ium-4-yl]amino]thiazole-5-carboximidate
   59    62     0     0     0
SMALL
USER_CHARGES

@<TRIPOS>ATOM
      1 C1          2.8905    1.0688    8.3231 C.2       1 <0>         0.3355
      2 C2          3.9713    1.9243    8.3671 C.2       1 <0>        -0.1407
      3 S1          4.5685    2.1789    6.7797 S.3       1 <0>         0.0318
      4 C3          3.3441    1.1375    6.1785 C.2       1 <0>         0.4263
      5 N1          2.5291    0.6169    7.0689 N.2       1 <0>        -0.6970
      6 N2          3.2675    0.8919    4.7930 N.pl3     1 <0>        -0.6507
      7 C4          2.3952    0.1019    4.0049 C.ar      1 <0>         0.3335
      8 C5          2.6085    0.0868    2.6416 C.ar      1 <0>        -0.4143
      9 C6          1.7377   -0.6944    1.9097 C.ar      1 <0>         0.7575
     10 N3          0.7329   -1.4101    2.4558 N.ar      1 <0>        -0.7487
     11 C7          0.6285   -1.3130    3.7949 C.ar      1 <0>         0.6174
     12 N4          1.4110   -0.5885    4.6174 N.ar      1 <0>        -0.3472
     13 C8         -0.4709   -2.0903    4.4354 C.3       1 <0>        -0.1711
     14 N5          1.9200   -0.7367    0.5229 N.pl3     1 <0>        -0.7546
     15 C9          1.5400   -1.9653   -0.1857 C.3       1 <0>         0.2018
     16 C10         2.2590   -2.0516   -1.5339 C.3       1 <0>         0.1645
     17 N6          2.0340   -0.8383   -2.3295 N.3       1 <0>        -0.7428
     18 C11         2.5419    0.3340   -1.6066 C.3       1 <0>         0.1645
     19 C12         1.8332    0.4998   -0.2600 C.3       1 <0>         0.2018
     20 C13         2.6799   -0.9549   -3.6364 C.3       1 <0>         0.1680
     21 C14         1.8193   -1.7892   -4.5775 C.3       1 <0>         0.1306
     22 O1          2.4674   -1.8879   -5.8393 O.3       1 <0>        -0.6019
     23 C15         4.5926    2.5621    9.4786 C.2       1 <0>         0.9588
     24 O2          5.5825    3.3245    9.3610 O.3       1 <0>        -0.8050
     25 N7          4.0056    2.3222   10.7453 N.2       1 <0>        -0.8416
     26 C16         4.3654    2.8325   12.0181 C.ar      1 <0>         0.2676
     27 C17         3.4388    3.5826   12.7423 C.ar      1 <0>        -0.1105
     28 C18         3.7798    4.0907   13.9958 C.ar      1 <0>        -0.1208
     29 C19         5.0475    3.8487   14.5250 C.ar      1 <0>        -0.1716
     30 C20         5.9741    3.0986   13.8008 C.ar      1 <0>        -0.1194
     31 C21         5.6330    2.5906   12.5473 C.ar      1 <0>        -0.0098
     32 Cl1         6.8138    1.6672   11.6873 Cl        1 <0>        -0.1327
     33 C22         2.0725    3.8600   12.2035 C.3       1 <0>        -0.0350
     34 H1          2.3231    0.7380    9.1833 H         1 <0>         0.0718
     35 H2          3.9878    1.3656    4.1098 H         1 <0>         0.4817
     36 H3          3.4079    0.6519    2.1761 H         1 <0>         0.1785
     37 H4         -0.4493   -1.9279    5.5231 H         1 <0>         0.0904
     38 H5         -0.3357   -3.1608    4.2217 H         1 <0>         0.0904
     39 H6         -1.4387   -1.7556    4.0338 H         1 <0>         0.0904
     40 H7          1.8156   -2.8395    0.4225 H         1 <0>         0.0620
     41 H8          0.4538   -1.9673   -0.3596 H         1 <0>         0.0620
     42 H9          3.3399   -2.1677   -1.3662 H         1 <0>         0.0507
     43 H10         1.8802   -2.9175   -2.0967 H         1 <0>         0.0507
     44 H11         3.6200    0.2137   -1.4246 H         1 <0>         0.0507
     45 H12         2.3703    1.2386   -2.2085 H         1 <0>         0.0507
     46 H13         0.7764    0.7459   -0.4408 H         1 <0>         0.0620
     47 H14         2.3107    1.3201    0.2960 H         1 <0>         0.0620
     48 H15         2.8172    0.0474   -4.0682 H         1 <0>         0.0541
     49 H16         3.6597   -1.4410   -3.5191 H         1 <0>         0.0541
     50 H17         1.6813   -2.7948   -4.1536 H         1 <0>         0.0297
     51 H18         0.8389   -1.3064   -4.7027 H         1 <0>         0.0297
     52 H19         1.9974   -2.4553   -6.6561 H         1 <0>         0.4075
     53 H20         3.0654    4.6767   14.5680 H         1 <0>         0.1137
     54 H21         5.3130    4.2442   15.5011 H         1 <0>         0.1168
     55 H22         6.9577    2.9195   14.2277 H         1 <0>         0.1272
     56 H23         1.5078    4.4638   12.9292 H         1 <0>         0.0336
     57 H24         1.5470    2.9094   12.0296 H         1 <0>         0.0336
     58 H25         2.1572    4.4109   11.2552 H         1 <0>         0.0336
     59 H26         1.2970   -0.5315    5.7100 H         1 <0>         0.3683
@<TRIPOS>BOND
     1    1    5 1
     2    1    2 2
     3    1   34 1
     4    2    3 1
     5    2   23 1
     6    3    4 1
     7    4    5 2
     8    4    6 1
     9    6    7 1
    10    6   35 1
    11    7   12 ar
    12    7    8 ar
    13    8    9 ar
    14    8   36 1
    15    9   10 ar
    16    9   14 1
    17   10   11 ar
    18   11   12 ar
    19   11   13 1
    20   12   59 1
    21   13   37 1
    22   13   38 1
    23   13   39 1
    24   14   19 1
    25   14   15 1
    26   15   16 1
    27   15   40 1
    28   15   41 1
    29   16   17 1
    30   16   42 1
    31   16   43 1
    32   17   18 1
    33   17   20 1
    34   18   19 1
    35   18   44 1
    36   18   45 1
    37   19   46 1
    38   19   47 1
    39   20   21 1
    40   20   48 1
    41   20   49 1
    42   21   22 1
    43   21   50 1
    44   21   51 1
    45   22   52 1
    46   23   24 1
    47   23   25 2
    48   25   26 1
    49   26   31 ar
    50   26   27 ar
    51   27   28 ar
    52   27   33 1
    53   28   29 ar
    54   28   53 1
    55   29   30 ar
    56   29   54 1
    57   30   31 ar
    58   30   55 1
    59   31   32 1
    60   33   56 1
    61   33   57 1
    62   33   58 1
@<TRIPOS>MOLECULE
~{N}-(2-chloro-6-methyl-phenyl)-2-[[6-[4-(2-hydroxyethyl)piperazin-4-ium-1-yl]-2-methyl-pyrimidin-4-yl]amino]thiazole-5-carboxamide
   60    63     0     0     0
SMALL
USER_CHARGES

@<TRIPOS>ATOM
      1 C1          2.8905    1.0688    8.3231 C.2       1 <0>         0.4226
      2 C2          3.9713    1.9243    8.3671 C.2       1 <0>        -0.2546
      3 S1          4.5685    2.1789    6.7797 S.3       1 <0>        -0.1084
      4 C3          3.3441    1.1375    6.1785 C.2       1 <0>         0.6263
      5 N1          2.5291    0.6169    7.0689 N.2       1 <0>        -0.6259
      6 N2          3.2675    0.8919    4.7930 N.pl3     1 <0>        -0.8185
      7 C4          2.3952    0.1019    4.0049 C.ar      1 <0>         0.7022
      8 C5          2.6085    0.0868    2.6416 C.ar      1 <0>        -0.4058
      9 C6          1.7377   -0.6944    1.9097 C.ar      1 <0>         0.6296
     10 N3          0.7329   -1.4101    2.4558 N.ar      1 <0>        -0.7630
     11 C7          0.6285   -1.3130    3.7949 C.ar      1 <0>         0.7083
     12 N4          1.4110   -0.5885    4.6174 N.ar      1 <0>        -0.6876
     13 C8         -0.4709   -2.0903    4.4354 C.3       1 <0>        -0.1421
     14 N5          1.9200   -0.7367    0.5229 N.pl3     1 <0>        -0.7571
     15 C9          1.5400   -1.9653   -0.1857 C.3       1 <0>         0.1607
     16 C10         2.2590   -2.0516   -1.5339 C.3       1 <0>         0.1062
     17 N6          2.0340   -0.8383   -2.3295 N.4       1 <0>        -0.6839
     18 C11         2.5419    0.3340   -1.6066 C.3       1 <0>         0.1062
     19 C12         1.8332    0.4998   -0.2600 C.3       1 <0>         0.1607
     20 C13         2.6799   -0.9549   -3.6364 C.3       1 <0>         0.0916
     21 C14         1.8193   -1.7892   -4.5775 C.3       1 <0>         0.1190
     22 O1          2.4674   -1.8879   -5.8393 O.3       1 <0>        -0.5792
     23 C15         4.5926    2.5621    9.4786 C.2       1 <0>         0.7184
     24 O2          5.5825    3.3245    9.3610 O.2       1 <0>        -0.5531
     25 N7          4.0056    2.3222   10.7453 N.am      1 <0>        -0.4810
     26 C16         4.3654    2.8325   12.0181 C.ar      1 <0>         0.0468
     27 C17         3.4388    3.5826   12.7423 C.ar      1 <0>        -0.0477
     28 C18         3.7798    4.0907   13.9958 C.ar      1 <0>        -0.1177
     29 C19         5.0475    3.8487   14.5250 C.ar      1 <0>        -0.1193
     30 C20         5.9741    3.0986   13.8008 C.ar      1 <0>        -0.1148
     31 C21         5.6330    2.5906   12.5473 C.ar      1 <0>        -0.0063
     32 Cl1         6.8138    1.6672   11.6873 Cl        1 <0>        -0.1076
     33 C22         2.0725    3.8600   12.2035 C.3       1 <0>        -0.0634
     34 H1          2.3231    0.7380    9.1833 H         1 <0>         0.0736
     35 H2          3.9878    1.3656    4.1098 H         1 <0>         0.4515
     36 H3          3.4079    0.6519    2.1761 H         1 <0>         0.1613
     37 H4         -0.4493   -1.9279    5.5231 H         1 <0>         0.0752
     38 H5         -0.3357   -3.1608    4.2217 H         1 <0>         0.0752
     39 H6         -1.4387   -1.7556    4.0338 H         1 <0>         0.0752
     40 H7          1.8156   -2.8395    0.4225 H         1 <0>         0.0868
     41 H8          0.4538   -1.9673   -0.3596 H         1 <0>         0.0868
     42 H9          3.3399   -2.1677   -1.3662 H         1 <0>         0.1088
     43 H10         1.8802   -2.9175   -2.0967 H         1 <0>         0.1088
     44 H11         3.6200    0.2137   -1.4246 H         1 <0>         0.1088
     45 H12         2.3703    1.2386   -2.2085 H         1 <0>         0.1088
     46 H13         0.7764    0.7459   -0.4408 H         1 <0>         0.0868
     47 H14         2.3107    1.3201    0.2960 H         1 <0>         0.0868
     48 H15         2.8172    0.0474   -4.0682 H         1 <0>         0.1197
     49 H16         3.6597   -1.4410   -3.5191 H         1 <0>         0.1197
     50 H17         1.6813   -2.7948   -4.1536 H         1 <0>         0.0453
     51 H18         0.8389   -1.3064   -4.7027 H         1 <0>         0.0453
     52 H19         1.9974   -2.4553   -6.6561 H         1 <0>         0.4420
     53 H20         3.1382    1.6512   10.8313 H         1 <0>         0.3171
     54 H21         3.0654    4.6767   14.5680 H         1 <0>         0.1442
     55 H22         5.3130    4.2442   15.5011 H         1 <0>         0.1445
     56 H23         6.9577    2.9195   14.2277 H         1 <0>         0.1527
     57 H24         1.5078    4.4638   12.9292 H         1 <0>         0.0566
     58 H25         1.5470    2.9094   12.0296 H         1 <0>         0.0566
     59 H26         2.1572    4.4109   11.2552 H         1 <0>         0.0566
     60 H27         0.9536   -0.7148   -2.4953 H         1 <0>         0.4436
@<TRIPOS>BOND
     1    1    5 1
     2    1    2 2
     3    1   34 1
     4    2    3 1
     5    2   23 1
     6    3    4 1
     7    4    5 2
     8    4    6 1
     9    6    7 1
    10    6   35 1
    11    7   12 ar
    12    7    8 ar
    13    8    9 ar
    14    8   36 1
    15    9   10 ar
    16    9   14 1
    17   10   11 ar
    18   11   12 ar
    19   11   13 1
    20   13   37 1
    21   13   38 1
    22   13   39 1
    23   14   19 1
    24   14   15 1
    25   15   16 1
    26   15   40 1
    27   15   41 1
    28   16   17 1
    29   16   42 1
    30   16   43 1
    31   17   18 1
    32   17   20 1
    33   17   60 1
    34   18   19 1
    35   18   44 1
    36   18   45 1
    37   19   46 1
    38   19   47 1
    39   20   21 1
    40   20   48 1
    41   20   49 1
    42   21   22 1
    43   21   50 1
    44   21   51 1
    45   22   52 1
    46   23   24 2
    47   23   25 am
    48   25   26 1
    49   25   53 1
    50   26   31 ar
    51   26   27 ar
    52   27   28 ar
    53   27   33 1
    54   28   29 ar
    55   28   54 1
    56   29   30 ar
    57   29   55 1
    58   30   31 ar
    59   30   56 1
    60   31   32 1
    61   33   57 1
    62   33   58 1
    63   33   59 1
@<TRIPOS>MOLECULE
(5~{Z})-~{N}-(2-chloro-6-methyl-phenyl)-2-[[6-[4-(2-hydroxyethyl)piperazin-1-yl]-2-methyl-pyrimidin-4-yl]amino]thiazole-5-carboximidate
   58    61     0     0     0
SMALL
USER_CHARGES

@<TRIPOS>ATOM
      1 C1          2.8905    1.0688    8.3231 C.2       1 <0>         0.3239
      2 C2          3.9713    1.9243    8.3671 C.2       1 <0>        -0.1606
      3 S1          4.5685    2.1789    6.7797 S.3       1 <0>        -0.1745
      4 C3          3.3441    1.1375    6.1785 C.2       1 <0>         0.5858
      5 N1          2.5291    0.6169    7.0689 N.2       1 <0>        -0.6322
      6 N2          3.2675    0.8919    4.7930 N.pl3     1 <0>        -0.8254
      7 C4          2.3952    0.1019    4.0049 C.ar      1 <0>         0.7198
      8 C5          2.6085    0.0868    2.6416 C.ar      1 <0>        -0.4662
      9 C6          1.7377   -0.6944    1.9097 C.ar      1 <0>         0.6750
     10 N3          0.7329   -1.4101    2.4558 N.ar      1 <0>        -0.7903
     11 C7          0.6285   -1.3130    3.7949 C.ar      1 <0>         0.6903
     12 N4          1.4110   -0.5885    4.6174 N.ar      1 <0>        -0.7083
     13 C8         -0.4709   -2.0903    4.4354 C.3       1 <0>        -0.1328
     14 N5          1.9200   -0.7367    0.5229 N.pl3     1 <0>        -0.7626
     15 C9          1.5400   -1.9653   -0.1857 C.3       1 <0>         0.1993
     16 C10         2.2590   -2.0516   -1.5339 C.3       1 <0>         0.1664
     17 N6          2.0340   -0.8383   -2.3295 N.3       1 <0>        -0.7428
     18 C11         2.5419    0.3340   -1.6066 C.3       1 <0>         0.1664
     19 C12         1.8332    0.4998   -0.2600 C.3       1 <0>         0.1993
     20 C13         2.6799   -0.9549   -3.6364 C.3       1 <0>         0.1714
     21 C14         1.8193   -1.7892   -4.5775 C.3       1 <0>         0.1279
     22 O1          2.4674   -1.8879   -5.8393 O.3       1 <0>        -0.6078
     23 C15         4.5926    2.5621    9.4786 C.2       1 <0>         0.9811
     24 O2          5.5825    3.3245    9.3610 O.3       1 <0>        -0.8179
     25 N7          4.0056    2.3222   10.7453 N.2       1 <0>        -0.8691
     26 C16         4.3654    2.8325   12.0181 C.ar      1 <0>         0.3030
     27 C17         3.4388    3.5826   12.7423 C.ar      1 <0>        -0.1241
     28 C18         3.7798    4.0907   13.9958 C.ar      1 <0>        -0.1223
     29 C19         5.0475    3.8487   14.5250 C.ar      1 <0>        -0.1947
     30 C20         5.9741    3.0986   13.8008 C.ar      1 <0>        -0.1205
     31 C21         5.6330    2.5906   12.5473 C.ar      1 <0>        -0.0248
     32 Cl1         6.8138    1.6672   11.6873 Cl        1 <0>        -0.1365
     33 C22         2.0725    3.8600   12.2035 C.3       1 <0>        -0.0325
     34 H1          2.3231    0.7380    9.1833 H         1 <0>         0.0504
     35 H2          3.9878    1.3656    4.1098 H         1 <0>         0.4488
     36 H3          3.4079    0.6519    2.1761 H         1 <0>         0.1469
     37 H4         -0.4493   -1.9279    5.5231 H         1 <0>         0.0587
     38 H5         -0.3357   -3.1608    4.2217 H         1 <0>         0.0587
     39 H6         -1.4387   -1.7556    4.0338 H         1 <0>         0.0587
     40 H7          1.8156   -2.8395    0.4225 H         1 <0>         0.0503
     41 H8          0.4538   -1.9673   -0.3596 H         1 <0>         0.0503
     42 H9          3.3399   -2.1677   -1.3662 H         1 <0>         0.0368
     43 H10         1.8802   -2.9175   -2.0967 H         1 <0>         0.0368
     44 H11         3.6200    0.2137   -1.4246 H         1 <0>         0.0368
     45 H12         2.3703    1.2386   -2.2085 H         1 <0>         0.0368
     46 H13         0.7764    0.7459   -0.4408 H         1 <0>         0.0503
     47 H14         2.3107    1.3201    0.2960 H         1 <0>         0.0503
     48 H15         2.8172    0.0474   -4.0682 H         1 <0>         0.0450
     49 H16         3.6597   -1.4410   -3.5191 H         1 <0>         0.0450
     50 H17         1.6813   -2.7948   -4.1536 H         1 <0>         0.0289
     51 H18         0.8389   -1.3064   -4.7027 H         1 <0>         0.0289
     52 H19         1.9974   -2.4553   -6.6561 H         1 <0>         0.3985
     53 H20         3.0654    4.6767   14.5680 H         1 <0>         0.1028
     54 H21         5.3130    4.2442   15.5011 H         1 <0>         0.1050
     55 H22         6.9577    2.9195   14.2277 H         1 <0>         0.1151
     56 H23         1.5078    4.4638   12.9292 H         1 <0>         0.0323
     57 H24         1.5470    2.9094   12.0296 H         1 <0>         0.0323
     58 H25         2.1572    4.4109   11.2552 H         1 <0>         0.0323
@<TRIPOS>BOND
     1    1    5 1
     2    1    2 2
     3    1   34 1
     4    2    3 1
     5    2   23 1
     6    3    4 1
     7    4    5 2
     8    4    6 1
     9    6    7 1
    10    6   35 1
    11    7   12 ar
    12    7    8 ar
    13    8    9 ar
    14    8   36 1
    15    9   10 ar
    16    9   14 1
    17   10   11 ar
    18   11   12 ar
    19   11   13 1
    20   13   37 1
    21   13   38 1
    22   13   39 1
    23   14   19 1
    24   14   15 1
    25   15   16 1
    26   15   40 1
    27   15   41 1
    28   16   17 1
    29   16   42 1
    30   16   43 1
    31   17   18 1
    32   17   20 1
    33   18   19 1
    34   18   44 1
    35   18   45 1
    36   19   46 1
    37   19   47 1
    38   20   21 1
    39   20   48 1
    40   20   49 1
    41   21   22 1
    42   21   50 1
    43   21   51 1
    44   22   52 1
    45   23   24 1
    46   23   25 2
    47   25   26 1
    48   26   31 ar
    49   26   27 ar
    50   27   28 ar
    51   27   33 1
    52   28   29 ar
    53   28   53 1
    54   29   30 ar
    55   29   54 1
    56   30   31 ar
    57   30   55 1
    58   31   32 1
    59   33   56 1
    60   33   57 1
    61   33   58 1
@<TRIPOS>MOLECULE
(~{Z})-[5-[(2-chloro-6-methyl-phenyl)carbamoyl]thiazol-3-ium-2-yl]-[6-[4-(2-hydroxyethyl)piperazin-1-yl]-2-methyl-1~{H}-pyrimidin-4-ylidene]ammonium
   61    64     0     0     0
SMALL
USER_CHARGES

@<TRIPOS>ATOM
      1 C1          2.8905    1.0688    8.3231 C.2       1 <0>        -0.0410
      2 C2          3.9713    1.9243    8.3671 C.2       1 <0>        -0.2169
      3 S1          4.5685    2.1789    6.7797 S.3       1 <0>         0.4447
      4 C3          3.3441    1.1375    6.1785 C.2       1 <0>         0.0414
      5 N1          2.5291    0.6169    7.0689 N.pl3     1 <0>        -0.1517
      6 N2          3.2675    0.8919    4.7930 N.pl3     1 <0>        -0.2819
      7 C4          2.3952    0.1019    4.0049 C.cat     1 <0>         0.5842
      8 C5          2.6085    0.0868    2.6416 C.2       1 <0>        -0.3934
      9 C6          1.7377   -0.6944    1.9097 C.2       1 <0>         0.4508
     10 N3          0.7329   -1.4101    2.4558 N.pl3     1 <0>        -0.6913
     11 C7          0.6285   -1.3130    3.7949 C.2       1 <0>         0.7418
     12 N4          1.4110   -0.5885    4.6174 N.2       1 <0>        -0.7667
     13 C8         -0.4709   -2.0903    4.4354 C.3       1 <0>        -0.1676
     14 N5          1.9200   -0.7367    0.5229 N.pl3     1 <0>        -0.6017
     15 C9          1.5400   -1.9653   -0.1857 C.3       1 <0>         0.1788
     16 C10         2.2590   -2.0516   -1.5339 C.3       1 <0>         0.1554
     17 N6          2.0340   -0.8383   -2.3295 N.3       1 <0>        -0.7448
     18 C11         2.5419    0.3340   -1.6066 C.3       1 <0>         0.1554
     19 C12         1.8332    0.4998   -0.2600 C.3       1 <0>         0.1788
     20 C13         2.6799   -0.9549   -3.6364 C.3       1 <0>         0.1634
     21 C14         1.8193   -1.7892   -4.5775 C.3       1 <0>         0.1362
     22 O1          2.4674   -1.8879   -5.8393 O.3       1 <0>        -0.5955
     23 C15         4.5926    2.5621    9.4786 C.2       1 <0>         0.7047
     24 O2          5.5825    3.3245    9.3610 O.2       1 <0>        -0.5634
     25 N7          4.0056    2.3222   10.7453 N.am      1 <0>        -0.4206
     26 C16         4.3654    2.8325   12.0181 C.ar      1 <0>         0.0016
     27 C17         3.4388    3.5826   12.7423 C.ar      1 <0>        -0.0370
     28 C18         3.7798    4.0907   13.9958 C.ar      1 <0>        -0.1136
     29 C19         5.0475    3.8487   14.5250 C.ar      1 <0>        -0.0936
     30 C20         5.9741    3.0986   13.8008 C.ar      1 <0>        -0.1034
     31 C21         5.6330    2.5906   12.5473 C.ar      1 <0>         0.0043
     32 Cl1         6.8138    1.6672   11.6873 Cl        1 <0>        -0.0932
     33 C22         2.0725    3.8600   12.2035 C.3       1 <0>        -0.0645
     34 H1          2.3231    0.7380    9.1833 H         1 <0>         0.2361
     35 H2          3.4079    0.6519    2.1761 H         1 <0>         0.1994
     36 H3         -0.4493   -1.9279    5.5231 H         1 <0>         0.1115
     37 H4         -0.3357   -3.1608    4.2217 H         1 <0>         0.1115
     38 H5         -1.4387   -1.7556    4.0338 H         1 <0>         0.1115
     39 H6          1.8156   -2.8395    0.4225 H         1 <0>         0.0898
     40 H7          0.4538   -1.9673   -0.3596 H         1 <0>         0.0898
     41 H8          3.3399   -2.1677   -1.3662 H         1 <0>         0.0677
     42 H9          1.8802   -2.9175   -2.0967 H         1 <0>         0.0677
     43 H10         3.6200    0.2137   -1.4246 H         1 <0>         0.0677
     44 H11         2.3703    1.2386   -2.2085 H         1 <0>         0.0677
     45 H12         0.7764    0.7459   -0.4408 H         1 <0>         0.0898
     46 H13         2.3107    1.3201    0.2960 H         1 <0>         0.0898
     47 H14         2.8172    0.0474   -4.0682 H         1 <0>         0.0665
     48 H15         3.6597   -1.4410   -3.5191 H         1 <0>         0.0665
     49 H16         1.6813   -2.7948   -4.1536 H         1 <0>         0.0320
     50 H17         0.8389   -1.3064   -4.7027 H         1 <0>         0.0320
     51 H18         1.9974   -2.4553   -6.6561 H         1 <0>         0.4241
     52 H19         3.1382    1.6512   10.8313 H         1 <0>         0.3234
     53 H20         3.0654    4.6767   14.5680 H         1 <0>         0.1570
     54 H21         5.3130    4.2442   15.5011 H         1 <0>         0.1629
     55 H22         6.9577    2.9195   14.2277 H         1 <0>         0.1691
     56 H23         1.5078    4.4638   12.9292 H         1 <0>         0.0567
     57 H24         1.5470    2.9094   12.0296 H         1 <0>         0.0567
     58 H25         2.1572    4.4109   11.2552 H         1 <0>         0.0567
     59 H26         1.6759   -0.0682    6.9559 H         1 <0>         0.3582
     60 H27         0.0745   -2.0129    1.8131 H         1 <0>         0.4992
     61 H28         4.0766    1.4626    4.3138 H         1 <0>         0.3391
@<TRIPOS>BOND
     1    1    5 1
     2    1    2 2
     3    1   34 1
     4    2    3 1
     5    2   23 1
     6    3    4 1
     7    4    5 2
     8    4    6 1
     9    5   59 1
    10    6    7 2
    11    6   61 1
    12    7   12 1
    13    7    8 1
    14    8    9 2
    15    8   35 1
    16    9   10 1
    17    9   14 1
    18   10   11 1
    19   10   60 1
    20   11   12 2
    21   11   13 1
    22   13   36 1
    23   13   37 1
    24   13   38 1
    25   14   19 1
    26   14   15 1
    27   15   16 1
    28   15   39 1
    29   15   40 1
    30   16   17 1
    31   16   41 1
    32   16   42 1
    33   17   18 1
    34   17   20 1
    35   18   19 1
    36   18   43 1
    37   18   44 1
    38   19   45 1
    39   19   46 1
    40   20   21 1
    41   20   47 1
    42   20   48 1
    43   21   22 1
    44   21   49 1
    45   21   50 1
    46   22   51 1
    47   23   24 2
    48   23   25 am
    49   25   26 1
    50   25   52 1
    51   26   31 ar
    52   26   27 ar
    53   27   28 ar
    54   27   33 1
    55   28   29 ar
    56   28   53 1
    57   29   30 ar
    58   29   54 1
    59   30   31 ar
    60   30   55 1
    61   31   32 1
    62   33   56 1
    63   33   57 1
    64   33   58 1
