@<TRIPOS>MOLECULE
~{N}-(2-chloro-6-methyl-phenyl)-2-[[6-[4-(2-hydroxyethyl)piperazin-1-yl]-2-methyl-pyrimidin-4-yl]amino]thiazole-5-carboxamide
59   62    1
SMALL
USER_CHARGES


@<TRIPOS>ATOM
      1 C1          2.8912    1.0679    8.3232 C.2       1 DAS         0.4038 
      2 C2          3.9723    1.9231    8.3673 C.2       1 DAS        -0.3015 
      3 S1          4.5696    2.1775    6.7799 S.3       1 DAS        -0.0613 
      4 C3          3.3449    1.1365    6.1786 C.2       1 DAS         0.6645 
      5 N1          2.5297    0.6162    7.0690 N.2       1 DAS        -0.6461 
      6 N2          3.2682    0.8910    4.7931 N.pl3     1 DAS        -0.8342 
      7 C4          2.3957    0.1013    4.0050 C.ar      1 DAS         0.7028 
      8 C5          2.6090    0.0862    2.6417 C.ar      1 DAS        -0.4500 
      9 C6          1.7376   -0.6943    1.9097 C.ar      1 DAS         0.6921 
     10 N3          0.7328   -1.4099    2.4558 N.ar      1 DAS        -0.7653 
     11 C7          0.6283   -1.3128    3.7949 C.ar      1 DAS         0.6973 
     12 N4          1.4111   -0.5886    4.6174 N.ar      1 DAS        -0.7143 
     13 C8         -0.4711   -2.0900    4.4354 C.3       1 DAS        -0.1354 
     14 N5          1.9199   -0.7366    0.5229 N.pl3     1 DAS        -0.7676 
     15 C9          1.5399   -1.9651   -0.1857 C.3       1 DAS         0.2009 
     16 C10         2.2588   -2.0514   -1.5340 C.3       1 DAS         0.1680 
     17 N6          2.0338   -0.8381   -2.3295 N.3       1 DAS        -0.7428 
     18 C11         2.5418    0.3342   -1.6066 C.3       1 DAS         0.1680 
     19 C12         1.8331    0.5000   -0.2600 C.3       1 DAS         0.2009 
     20 C13         2.6797   -0.9547   -3.6364 C.3       1 DAS         0.1705 
     21 C14         1.8191   -1.7889   -4.5775 C.3       1 DAS         0.1287 
     22 O1          2.4671   -1.8876   -5.8394 O.3       1 DAS        -0.6048 
     23 C15         4.5938    2.5606    9.4788 C.2       1 DAS         0.7227 
     24 O2          5.5839    3.3227    9.3612 O.2       1 DAS        -0.5937 
     25 N7          4.0067    2.3209   10.7455 N.am      1 DAS        -0.4696 
     26 C16         4.3666    2.8310   12.0183 C.ar      1 DAS         0.0597 
     27 C17         3.4402    3.5814   12.7425 C.ar      1 DAS        -0.0507 
     28 C18         3.7814    4.0894   13.9960 C.ar      1 DAS        -0.1207 
     29 C19         5.0490    3.8469   14.5252 C.ar      1 DAS        -0.1288 
     30 C20         5.9753    3.0965   13.8010 C.ar      1 DAS        -0.1154 
     31 C21         5.6341    2.5886   12.5475 C.ar      1 DAS        -0.0124 
     32 Cl1         6.8146    1.6648   11.6875 Cl        1 DAS        -0.1012 
     33 C22         2.0740    3.8593   12.2037 C.3       1 DAS        -0.0583 
     34 H1          2.3237    0.7373    9.1834 H         1 DAS         0.0462 
     35 H3          3.3354    0.5938    2.1783 H         1 DAS         0.1532 
     36 H4         -1.0335   -2.6346    3.6626 H         1 DAS         0.0650 
     37 H5         -1.1470   -1.4017    4.9640 H         1 DAS         0.0650 
     38 H6         -0.0441   -2.8070    5.1519 H         1 DAS         0.0650 
     39 H7          0.4522   -1.9607   -0.3499 H         1 DAS         0.0518 
     40 H8          1.8139   -2.8330    0.4321 H         1 DAS         0.0518 
     41 H9          3.3398   -2.1676   -1.3663 H         1 DAS         0.0410 
     42 H10         1.8800   -2.9173   -2.0968 H         1 DAS         0.0410 
     43 H11         3.6199    0.2139   -1.4246 H         1 DAS         0.0410 
     44 H12         2.3702    1.2388   -2.2084 H         1 DAS         0.0410 
     45 H13         2.3078    1.3149    0.3063 H         1 DAS         0.0518 
     46 H14         0.7734    0.7407   -0.4305 H         1 DAS         0.0518 
     47 H15         2.8170    0.0477   -4.0683 H         1 DAS         0.0480 
     48 H16         3.6595   -1.4408   -3.5192 H         1 DAS         0.0480 
     49 H17         1.6811   -2.7945   -4.1536 H         1 DAS         0.0291 
     50 H18         0.8386   -1.3061   -4.7027 H         1 DAS         0.0291 
     51 H19         1.9971   -2.4549   -6.6562 H         1 DAS         0.4027 
     52 H21         3.0672    4.6756   14.5682 H         1 DAS         0.1377 
     53 H22         5.3146    4.2423   15.5013 H         1 DAS         0.1386 
     54 H23         6.9589    2.9171   14.2280 H         1 DAS         0.1482 
     55 H24         1.5095    4.4632   12.9293 H         1 DAS         0.0551 
     56 H25         1.5482    2.9089   12.0298 H         1 DAS         0.0551 
     57 H26         2.1590    4.4102   11.2554 H         1 DAS         0.0551 
     58 H58         4.0775    1.4615    4.3140 H         1 DAS         0.0000 
     59 H59         3.1391    1.6501   10.8315 H         1 DAS         0.0000 
@<TRIPOS>BOND
     1    1    5 1    
     2    1    2 2    
     3    1   34 1    
     4    2    3 1    
     5    2   23 1    
     6    3    4 1    
     7    4    5 2    
     8    4    6 1    
     9    6    7 1    
    10    6   58 1    
    11    7   12 ar   
    12    7    8 ar   
    13    8   35 1    
    14    8    9 ar   
    15    9   14 1    
    16    9   10 ar   
    17   10   11 ar   
    18   11   13 1    
    19   11   12 ar   
    20   13   36 1    
    21   13   37 1    
    22   13   38 1    
    23   14   19 1    
    24   14   15 1    
    25   15   16 1    
    26   15   39 1    
    27   15   40 1    
    28   16   17 1    
    29   16   41 1    
    30   16   42 1    
    31   17   18 1    
    32   17   20 1    
    33   18   19 1    
    34   18   43 1    
    35   18   44 1    
    36   19   45 1    
    37   19   46 1    
    38   20   21 1    
    39   20   47 1    
    40   20   48 1    
    41   21   22 1    
    42   21   49 1    
    43   21   50 1    
    44   22   51 1    
    45   23   24 2    
    46   23   25 am   BACKBONE|DICT|INTERRES
    47   25   26 1    
    48   25   59 1    
    49   26   31 ar   
    50   26   27 ar   
    51   27   28 ar   
    52   27   33 1    
    53   28   29 ar   
    54   28   52 1    
    55   29   30 ar   
    56   29   53 1    
    57   30   31 ar   
    58   30   54 1    
    59   31   32 1    
    60   33   55 1    
    61   33   56 1    
    62   33   57 1    
@<TRIPOS>SUBSTRUCTURE
     1 DAS         1 GROUP             0       ****    0 ROOT    
@<TRIPOS>MOLECULE
~{N}-(2-chloro-6-methyl-phenyl)-2-[[6-[4-(2-hydroxyethyl)piperazin-1-yl]-2-methyl-pyrimidin-4-yl]amino]thiazole-5-carboxamide
60   63    1
SMALL
USER_CHARGES


@<TRIPOS>ATOM
      1 C1          4.0228    1.9286    8.1081 C.2       1 DAS         0.4038 
      2 C2          2.9707    1.1589    8.5581 C.2       1 DAS        -0.3015 
      3 S1          2.2122    0.3870    7.2276 S.3       1 DAS        -0.0613 
      4 C3          3.3444    1.1372    6.1785 C.2       1 DAS         0.6645 
      5 N1          4.2383    1.9178    6.7438 N.2       1 DAS        -0.6461 
      6 N2          3.2679    0.8914    4.7931 N.pl3     1 DAS        -0.8342 
      7 C4          2.3959    0.1010    4.0050 C.ar      1 DAS         0.7028 
      8 C5          2.6093    0.0858    2.6417 C.ar      1 DAS        -0.4500 
      9 C6          1.7388   -0.6958    1.9099 C.ar      1 DAS         0.6921 
     10 N3          0.7341   -1.4116    2.4560 N.ar      1 DAS        -0.7653 
     11 C7          0.6296   -1.3144    3.7951 C.ar      1 DAS         0.6973 
     12 N4          1.4119   -0.5896    4.6175 N.ar      1 DAS        -0.7143 
     13 C8         -0.4694   -2.0922    4.4356 C.3       1 DAS        -0.1354 
     14 N5          1.9212   -0.7382    0.5231 N.pl3     1 DAS        -0.7676 
     15 C9          1.5416   -1.9670   -0.1854 C.3       1 DAS         0.2009 
     16 C10         2.2607   -2.0532   -1.5335 C.3       1 DAS         0.1680 
     17 N6          2.0353   -0.8401   -2.3293 N.4       1 DAS        -0.7428 
     18 C11         2.5429    0.3325   -1.6065 C.3       1 DAS         0.1680 
     19 C12         1.8340    0.4982   -0.2600 C.3       1 DAS         0.2009 
     20 C13         2.6813   -0.9566   -3.6361 C.3       1 DAS         0.1705 
     21 C14         1.8211   -1.7913   -4.5772 C.3       1 DAS         0.1287 
     22 O1          2.4692   -1.8899   -5.8389 O.3       1 DAS        -0.6048 
     23 C15         2.4858    0.9502    9.8808 C.2       1 DAS         0.7227 
     24 O2          1.5041    0.2119   10.1382 O.2       1 DAS        -0.5937 
     25 N7          3.2013    1.5970   10.9182 N.am      1 DAS        -0.4696 
     26 C16         2.9912    1.5584   12.3197 C.ar      1 DAS         0.0597 
     27 C17         4.0052    1.0834   13.1516 C.ar      1 DAS        -0.0507 
     28 C18         3.8117    1.0399   14.5323 C.ar      1 DAS        -0.1207 
     29 C19         2.6040    1.4714   15.0811 C.ar      1 DAS        -0.1288 
     30 C20         1.5901    1.9464   14.2492 C.ar      1 DAS        -0.1154 
     31 C21         1.7837    1.9899   12.8685 C.ar      1 DAS        -0.0124 
     32 Cl1         0.4990    2.5861   11.8783 Cl        1 DAS        -0.1012 
     33 C22         5.3105    0.6136   12.5952 C.3       1 DAS        -0.0583 
     34 H1          4.5749    2.4501    8.7586 H         1 DAS         0.0462 
     35 H2          4.0769    1.4623    4.3139 H         1 DAS         0.4579 
     36 H3          3.3568    0.6198    2.2467 H         1 DAS         0.1532 
     37 H4         -0.4479   -1.9296    5.5233 H         1 DAS         0.0650 
     38 H5         -0.3337   -3.1627    4.2221 H         1 DAS         0.0650 
     39 H6         -1.4374   -1.7580    4.0340 H         1 DAS         0.0650 
     40 H7          1.8174   -2.8410    0.4229 H         1 DAS         0.0518 
     41 H8          0.4554   -1.9693   -0.3593 H         1 DAS         0.0518 
     42 H9          3.3416   -2.1690   -1.3658 H         1 DAS         0.0410 
     43 H10         1.8822   -2.9192   -2.0963 H         1 DAS         0.0410 
     44 H11         3.6210    0.2126   -1.4244 H         1 DAS         0.0410 
     45 H12         2.3710    1.2370   -2.2085 H         1 DAS         0.0410 
     46 H13         0.7772    0.7439   -0.4409 H         1 DAS         0.0518 
     47 H14         2.3113    1.3187    0.2959 H         1 DAS         0.0518 
     48 H15         2.8184    0.0457   -4.0681 H         1 DAS         0.0480 
     49 H16         3.6613   -1.4424   -3.5188 H         1 DAS         0.0480 
     50 H17         1.6834   -2.7969   -4.1531 H         1 DAS         0.0291 
     51 H18         0.8405   -1.3088   -4.7025 H         1 DAS         0.0291 
     52 H20         4.0596    2.2410   10.6758 H         1 DAS         0.3239 
     53 H21         4.5951    0.6712   15.1892 H         1 DAS         0.1377 
     54 H22         2.4533    1.4377   16.1561 H         1 DAS         0.1386 
     55 H23         0.6550    2.2786   14.6932 H         1 DAS         0.1482 
     56 H24         5.9620    0.2833   13.4177 H         1 DAS         0.0551 
     57 H25         5.7954    1.4379   12.0517 H         1 DAS         0.0551 
     58 H26         5.1346   -0.2262   11.9069 H         1 DAS         0.0551 
     59 H59         0.9549   -0.7169   -2.4952 H         1 DAS         0.0000 
     60 H60         1.9995   -2.4575   -6.6557 H         1 DAS         0.0000 
@<TRIPOS>BOND
     1    1    5 1    
     2    1   34 1    
     3    1    2 2    
     4    2   23 1    
     5    2    3 1    
     6    3    4 1    
     7    4    6 1    
     8    4    5 2    
     9    6    7 1    
    10    6   35 1    
    11    7    8 ar   
    12    7   12 ar   
    13    8   36 1    
    14    8    9 ar   
    15    9   14 1    
    16    9   10 ar   
    17   10   11 ar   
    18   11   13 1    
    19   11   12 ar   
    20   13   37 1    
    21   13   38 1    
    22   13   39 1    
    23   14   19 1    
    24   14   15 1    
    25   15   16 1    
    26   15   40 1    
    27   15   41 1    
    28   16   17 1    
    29   16   42 1    
    30   16   43 1    
    31   17   18 1    
    32   17   20 1    
    33   17   59 1    
    34   18   19 1    
    35   18   44 1    
    36   18   45 1    
    37   19   46 1    
    38   19   47 1    
    39   20   21 1    
    40   20   48 1    
    41   20   49 1    
    42   21   22 1    
    43   21   50 1    
    44   21   51 1    
    45   22   60 1    
    46   23   24 2    
    47   23   25 am   BACKBONE|DICT|INTERRES
    48   25   26 1    
    49   25   52 1    
    50   26   31 ar   
    51   26   27 ar   
    52   27   28 ar   
    53   27   33 1    
    54   28   29 ar   
    55   28   53 1    
    56   29   30 ar   
    57   29   54 1    
    58   30   31 ar   
    59   30   55 1    
    60   31   32 1    
    61   33   56 1    
    62   33   57 1    
    63   33   58 1    
@<TRIPOS>SUBSTRUCTURE
     1 DAS         1 GROUP             0       ****    0 ROOT    
@<TRIPOS>MOLECULE
~{N}-(2-chloro-6-methyl-phenyl)-2-[[6-[4-(2-hydroxyethyl)piperazin-1-yl]-2-methyl-pyrimidin-4-yl]amino]thiazole-5-carboxamide
60   63    1
SMALL
USER_CHARGES


@<TRIPOS>ATOM
      1 C1          2.8912    1.0679    8.3232 C.2       1 DAS         0.4038 
      2 C2          3.9723    1.9231    8.3673 C.2       1 DAS        -0.3015 
      3 S1          4.5696    2.1775    6.7799 S.3       1 DAS        -0.0613 
      4 C3          3.3449    1.1365    6.1786 C.cat     1 DAS         0.6645 
      5 N1          2.5297    0.6162    7.0690 N.2       1 DAS        -0.6461 
      6 N2          3.2682    0.8910    4.7931 N.pl3     1 DAS        -0.8342 
      7 C4          2.3957    0.1013    4.0050 C.ar      1 DAS         0.7028 
      8 C5          2.6090    0.0862    2.6417 C.ar      1 DAS        -0.4500 
      9 C6          1.7375   -0.6941    1.9097 C.ar      1 DAS         0.6921 
     10 N3          0.7328   -1.4099    2.4558 N.pl3     1 DAS        -0.7653 
     11 C7          0.6285   -1.3130    3.7949 C.ar      1 DAS         0.6973 
     12 N4          1.4112   -0.5888    4.6174 N.2       1 DAS        -0.7143 
     13 C8         -0.4708   -2.0904    4.4354 C.3       1 DAS        -0.1354 
     14 N5          1.9190   -0.7355    0.5227 N.pl3     1 DAS        -0.7676 
     15 C9          1.5392   -1.9638   -0.1864 C.3       1 DAS         0.2009 
     16 C10         2.2575   -2.0489   -1.5351 C.3       1 DAS         0.1680 
     17 N6          2.0315   -0.8353   -2.3298 N.3       1 DAS        -0.7428 
     18 C11         2.5393    0.3368   -1.6064 C.3       1 DAS         0.1680 
     19 C12         1.8312    0.5015   -0.2594 C.3       1 DAS         0.2009 
     20 C13         2.6768   -0.9507   -3.6371 C.3       1 DAS         0.1705 
     21 C14         1.8160   -1.7849   -4.5783 C.3       1 DAS         0.1287 
     22 O1          2.4635   -1.8825   -5.8405 O.3       1 DAS        -0.6048 
     23 C15         4.5938    2.5606    9.4788 C.2       1 DAS         0.7227 
     24 O2          5.5839    3.3227    9.3612 O.2       1 DAS        -0.5937 
     25 N7          4.0067    2.3209   10.7455 N.am      1 DAS        -0.4696 
     26 C16         4.3666    2.8310   12.0183 C.ar      1 DAS         0.0597 
     27 C17         3.4402    3.5814   12.7425 C.ar      1 DAS        -0.0507 
     28 C18         3.7814    4.0894   13.9960 C.ar      1 DAS        -0.1207 
     29 C19         5.0490    3.8469   14.5252 C.ar      1 DAS        -0.1288 
     30 C20         5.9753    3.0965   13.8010 C.ar      1 DAS        -0.1154 
     31 C21         5.6341    2.5886   12.5475 C.ar      1 DAS        -0.0124 
     32 Cl1         6.8146    1.6648   11.6875 Cl        1 DAS        -0.1012 
     33 C22         2.0740    3.8593   12.2037 C.3       1 DAS        -0.0583 
     34 H1          2.4214    0.8120    9.1681 H         1 DAS         0.0462 
     35 H3          3.3356    0.5936    2.1784 H         1 DAS         0.1532 
     36 H4         -0.4491   -1.9282    5.5232 H         1 DAS         0.0650 
     37 H5         -0.3356   -3.1609    4.2216 H         1 DAS         0.0650 
     38 H6         -1.4387   -1.7557    4.0340 H         1 DAS         0.0650 
     39 H7          0.4515   -1.9598   -0.3500 H         1 DAS         0.0518 
     40 H8          1.8140   -2.8319    0.4308 H         1 DAS         0.0518 
     41 H9          3.3386   -2.1646   -1.3680 H         1 DAS         0.0410 
     42 H10         1.8788   -2.9146   -2.0982 H         1 DAS         0.0410 
     43 H11         3.6176    0.2170   -1.4251 H         1 DAS         0.0410 
     44 H12         2.3669    1.2418   -2.2076 H         1 DAS         0.0410 
     45 H13         2.3058    1.3163    0.3071 H         1 DAS         0.0518 
     46 H14         0.7713    0.7418   -0.4292 H         1 DAS         0.0518 
     47 H15         2.8134    0.0519   -4.0684 H         1 DAS         0.0480 
     48 H16         3.6568   -1.4364   -3.5207 H         1 DAS         0.0480 
     49 H17         1.6788   -2.7908   -4.1549 H         1 DAS         0.0291 
     50 H18         0.8353   -1.3025   -4.7026 H         1 DAS         0.0291 
     51 H19         1.9933   -2.4496   -6.6574 H         1 DAS         0.4027 
     52 H20         3.1391    1.6501   10.8315 H         1 DAS         0.3239 
     53 H21         3.0672    4.6756   14.5682 H         1 DAS         0.1377 
     54 H22         5.3146    4.2423   15.5013 H         1 DAS         0.1386 
     55 H23         6.9589    2.9171   14.2280 H         1 DAS         0.1482 
     56 H24         1.5095    4.4632   12.9293 H         1 DAS         0.0551 
     57 H25         1.5482    2.9089   12.0298 H         1 DAS         0.0551 
     58 H26         2.1590    4.4102   11.2554 H         1 DAS         0.0551 
     59 H59         4.0775    1.4615    4.3140 H         1 DAS         0.0000 
     60 H60         0.0271   -2.0389    1.8933 H         1 DAS         0.0000 
@<TRIPOS>BOND
     1    1    5 1    
     2    1    2 2    
     3    1   34 1    
     4    2    3 1    
     5    2   23 1    
     6    3    4 1    
     7    4    5 2    
     8    4    6 ar   
     9    6    7 2    
    10    6   59 1    
    11    7    8 ar   
    12    7   12 ar   
    13    8    9 ar   
    14    8   35 1    
    15    9   10 ar   
    16    9   14 1    
    17   10   11 ar   
    18   10   60 1    
    19   11   13 1    
    20   11   12 ar   
    21   13   36 1    
    22   13   37 1    
    23   13   38 1    
    24   14   19 1    
    25   14   15 1    
    26   15   16 1    
    27   15   39 1    
    28   15   40 1    
    29   16   17 1    
    30   16   41 1    
    31   16   42 1    
    32   17   18 1    
    33   17   20 1    
    34   18   19 1    
    35   18   43 1    
    36   18   44 1    
    37   19   45 1    
    38   19   46 1    
    39   20   21 1    
    40   20   47 1    
    41   20   48 1    
    42   21   22 1    
    43   21   49 1    
    44   21   50 1    
    45   22   51 1    
    46   23   24 2    
    47   23   25 am   BACKBONE|DICT|INTERRES
    48   25   26 1    
    49   25   52 1    
    50   26   31 ar   
    51   26   27 ar   
    52   27   28 ar   
    53   27   33 1    
    54   28   29 ar   
    55   28   53 1    
    56   29   30 ar   
    57   29   54 1    
    58   30   31 ar   
    59   30   55 1    
    60   31   32 1    
    61   33   56 1    
    62   33   57 1    
    63   33   58 1    
@<TRIPOS>SUBSTRUCTURE
     1 DAS         1 GROUP             0       ****    0 ROOT    
@<TRIPOS>MOLECULE
~{N}-(2-chloro-6-methyl-phenyl)-2-[[6-[4-(2-hydroxyethyl)piperazin-1-yl]-2-methyl-pyrimidin-4-yl]amino]thiazole-5-carboxamide
61   64    1
SMALL
USER_CHARGES


@<TRIPOS>ATOM
      1 C1          5.9008    2.7554    3.3004 C.2       1 DAS         0.4038 
      2 C2          6.2579    3.2019    4.5555 C.2       1 DAS        -0.3015 
      3 S1          5.2005    2.5310    5.7272 S.3       1 DAS        -0.0613 
      4 C3          4.3683    1.7104    4.4705 C.cat     1 DAS         0.6645 
      5 N1          4.8177    1.8998    3.2498 N.2       1 DAS        -0.6461 
      6 N2          3.2682    0.8910    4.7931 N.pl3     1 DAS        -0.8342 
      7 C4          2.3957    0.1013    4.0050 C.ar      1 DAS         0.7028 
      8 C5          2.6090    0.0862    2.6417 C.ar      1 DAS        -0.4500 
      9 C6          1.7375   -0.6941    1.9097 C.ar      1 DAS         0.6921 
     10 N3          0.7328   -1.4099    2.4558 N.pl3     1 DAS        -0.7653 
     11 C7          0.6285   -1.3130    3.7949 C.ar      1 DAS         0.6973 
     12 N4          1.4112   -0.5888    4.6174 N.2       1 DAS        -0.7143 
     13 C8         -0.4708   -2.0904    4.4354 C.3       1 DAS        -0.1354 
     14 N5          1.9190   -0.7355    0.5227 N.pl3     1 DAS        -0.7676 
     15 C9          1.5392   -1.9638   -0.1864 C.3       1 DAS         0.2009 
     16 C10         2.2575   -2.0489   -1.5351 C.3       1 DAS         0.1680 
     17 N6          2.0315   -0.8353   -2.3298 N.4       1 DAS        -0.7428 
     18 C11         2.5393    0.3368   -1.6064 C.3       1 DAS         0.1680 
     19 C12         1.8312    0.5015   -0.2594 C.3       1 DAS         0.2009 
     20 C13         2.6768   -0.9507   -3.6371 C.3       1 DAS         0.1705 
     21 C14         1.8160   -1.7849   -4.5783 C.3       1 DAS         0.1287 
     22 O1          2.4635   -1.8825   -5.8405 O.3       1 DAS        -0.6048 
     23 C15         7.3082    4.0774    4.9540 C.2       1 DAS         0.7227 
     24 O2          7.5125    4.3963    6.1504 O.2       1 DAS        -0.5937 
     25 N7          8.1534    4.5507    3.9204 N.am      1 DAS        -0.4696 
     26 C16         9.2898    5.3947    3.9991 C.ar      1 DAS         0.0597 
     27 C17        10.5250    4.9239    3.5539 C.ar      1 DAS        -0.0507 
     28 C18        11.6511    5.7438    3.6257 C.ar      1 DAS        -0.1207 
     29 C19        11.5420    7.0347    4.1429 C.ar      1 DAS        -0.1288 
     30 C20        10.3067    7.5056    4.5881 C.ar      1 DAS        -0.1154 
     31 C21         9.1806    6.6855    4.5162 C.ar      1 DAS        -0.0124 
     32 Cl1         7.6720    7.3123    5.0798 Cl        1 DAS        -0.1012 
     33 C22        10.6757    3.5459    2.9948 C.3       1 DAS        -0.0583 
     34 H1          6.4175    3.0537    2.4979 H         1 DAS         0.0462 
     35 H3          3.3356    0.5936    2.1784 H         1 DAS         0.1532 
     36 H4         -0.4491   -1.9282    5.5232 H         1 DAS         0.0650 
     37 H5         -0.3356   -3.1609    4.2216 H         1 DAS         0.0650 
     38 H6         -1.4387   -1.7557    4.0340 H         1 DAS         0.0650 
     39 H7          0.4515   -1.9598   -0.3500 H         1 DAS         0.0518 
     40 H8          1.8140   -2.8319    0.4308 H         1 DAS         0.0518 
     41 H9          3.3386   -2.1646   -1.3680 H         1 DAS         0.0410 
     42 H10         1.8788   -2.9146   -2.0982 H         1 DAS         0.0410 
     43 H11         3.6176    0.2170   -1.4251 H         1 DAS         0.0410 
     44 H12         2.3669    1.2418   -2.2076 H         1 DAS         0.0410 
     45 H13         2.3058    1.3163    0.3071 H         1 DAS         0.0518 
     46 H14         0.7713    0.7418   -0.4292 H         1 DAS         0.0518 
     47 H15         2.8134    0.0519   -4.0684 H         1 DAS         0.0480 
     48 H16         3.6568   -1.4364   -3.5207 H         1 DAS         0.0480 
     49 H17         1.6788   -2.7908   -4.1549 H         1 DAS         0.0291 
     50 H18         0.8353   -1.3025   -4.7026 H         1 DAS         0.0291 
     51 H19         1.9933   -2.4496   -6.6574 H         1 DAS         0.4027 
     52 H20         7.9607    4.2618    2.8767 H         1 DAS         0.3239 
     53 H21        12.6182    5.3865    3.2820 H         1 DAS         0.1377 
     54 H22        12.4187    7.6732    4.1987 H         1 DAS         0.1386 
     55 H23        10.2392    8.5140    4.9885 H         1 DAS         0.1482 
     56 H24        11.7241    3.3800    2.7063 H         1 DAS         0.0551 
     57 H25        10.0303    3.4363    2.1108 H         1 DAS         0.0551 
     58 H26        10.3835    2.8074    3.7560 H         1 DAS         0.0551 
     59 H59         3.1366    0.9338    5.8844 H         1 DAS         0.0000 
     60 H60         0.0271   -2.0389    1.8933 H         1 DAS         0.0000 
     61 H61         0.9510   -0.7122   -2.4949 H         1 DAS         0.0000 
@<TRIPOS>BOND
     1    1    5 1    
     2    1    2 2    
     3    1   34 1    
     4    2    3 1    
     5    2   23 1    
     6    3    4 1    
     7    4    5 2    
     8    4    6 ar   
     9    6    7 2    
    10    6   59 1    
    11    7    8 ar   
    12    7   12 ar   
    13    8    9 ar   
    14    8   35 1    
    15    9   10 ar   
    16    9   14 1    
    17   10   11 ar   
    18   10   60 1    
    19   11   13 1    
    20   11   12 ar   
    21   13   36 1    
    22   13   37 1    
    23   13   38 1    
    24   14   19 1    
    25   14   15 1    
    26   15   16 1    
    27   15   39 1    
    28   15   40 1    
    29   16   17 1    
    30   16   41 1    
    31   16   42 1    
    32   17   18 1    
    33   17   20 1    
    34   17   61 1    
    35   18   19 1    
    36   18   43 1    
    37   18   44 1    
    38   19   45 1    
    39   19   46 1    
    40   20   21 1    
    41   20   47 1    
    42   20   48 1    
    43   21   22 1    
    44   21   49 1    
    45   21   50 1    
    46   22   51 1    
    47   23   24 2    
    48   23   25 am   BACKBONE|DICT|INTERRES
    49   25   26 1    
    50   25   52 1    
    51   26   31 ar   
    52   26   27 ar   
    53   27   28 ar   
    54   27   33 1    
    55   28   29 ar   
    56   28   53 1    
    57   29   30 ar   
    58   29   54 1    
    59   30   31 ar   
    60   30   55 1    
    61   31   32 1    
    62   33   56 1    
    63   33   57 1    
    64   33   58 1    
@<TRIPOS>SUBSTRUCTURE
     1 DAS         1 GROUP             0       ****    0 ROOT    
@<TRIPOS>MOLECULE
~{N}-(2-chloro-6-methyl-phenyl)-2-[[6-[4-(2-hydroxyethyl)piperazin-1-yl]-2-methyl-pyrimidin-4-yl]amino]thiazole-5-carboxamide
60   63    1
SMALL
USER_CHARGES


@<TRIPOS>ATOM
      1 C1          5.9008    2.7554    3.3004 C.2       1 DAS         0.4038 
      2 C2          6.2579    3.2019    4.5555 C.2       1 DAS        -0.3015 
      3 S1          5.2005    2.5310    5.7272 S.3       1 DAS        -0.0613 
      4 C3          4.3683    1.7104    4.4705 C.cat     1 DAS         0.6645 
      5 N1          4.8177    1.8998    3.2498 N.2       1 DAS        -0.6461 
      6 N2          3.2682    0.8910    4.7931 N.pl3     1 DAS        -0.8342 
      7 C4          2.3957    0.1013    4.0050 C.ar      1 DAS         0.7028 
      8 C5          2.6090    0.0862    2.6417 C.ar      1 DAS        -0.4500 
      9 C6          1.7375   -0.6941    1.9097 C.ar      1 DAS         0.6921 
     10 N3          0.7328   -1.4099    2.4558 N.pl3     1 DAS        -0.7653 
     11 C7          0.6285   -1.3130    3.7949 C.ar      1 DAS         0.6973 
     12 N4          1.4112   -0.5888    4.6174 N.2       1 DAS        -0.7143 
     13 C8         -0.4708   -2.0904    4.4354 C.3       1 DAS        -0.1354 
     14 N5          1.9190   -0.7355    0.5227 N.pl3     1 DAS        -0.7676 
     15 C9          1.5392   -1.9638   -0.1864 C.3       1 DAS         0.2009 
     16 C10         2.2575   -2.0489   -1.5351 C.3       1 DAS         0.1680 
     17 N6          2.0315   -0.8353   -2.3298 N.3       1 DAS        -0.7428 
     18 C11         2.5393    0.3368   -1.6064 C.3       1 DAS         0.1680 
     19 C12         1.8312    0.5015   -0.2594 C.3       1 DAS         0.2009 
     20 C13         2.6768   -0.9507   -3.6371 C.3       1 DAS         0.1705 
     21 C14         1.8160   -1.7849   -4.5783 C.3       1 DAS         0.1287 
     22 O1          2.4635   -1.8825   -5.8405 O.3       1 DAS        -0.6048 
     23 C15         7.3082    4.0774    4.9540 C.2       1 DAS         0.7227 
     24 O2          7.5125    4.3963    6.1504 O.2       1 DAS        -0.5937 
     25 N7          8.1534    4.5507    3.9204 N.am      1 DAS        -0.4696 
     26 C16         9.2898    5.3947    3.9991 C.ar      1 DAS         0.0597 
     27 C17        10.5250    4.9239    3.5539 C.ar      1 DAS        -0.0507 
     28 C18        11.6511    5.7438    3.6257 C.ar      1 DAS        -0.1207 
     29 C19        11.5420    7.0347    4.1429 C.ar      1 DAS        -0.1288 
     30 C20        10.3067    7.5056    4.5881 C.ar      1 DAS        -0.1154 
     31 C21         9.1806    6.6855    4.5162 C.ar      1 DAS        -0.0124 
     32 Cl1         7.6720    7.3123    5.0798 Cl        1 DAS        -0.1012 
     33 C22        10.6757    3.5459    2.9948 C.3       1 DAS        -0.0583 
     34 H1          6.4175    3.0537    2.4979 H         1 DAS         0.0462 
     35 H3          3.3356    0.5936    2.1784 H         1 DAS         0.1532 
     36 H4         -0.4491   -1.9282    5.5232 H         1 DAS         0.0650 
     37 H5         -0.3356   -3.1609    4.2216 H         1 DAS         0.0650 
     38 H6         -1.4387   -1.7557    4.0340 H         1 DAS         0.0650 
     39 H7          0.4515   -1.9598   -0.3500 H         1 DAS         0.0518 
     40 H8          1.8140   -2.8319    0.4308 H         1 DAS         0.0518 
     41 H9          3.3386   -2.1646   -1.3680 H         1 DAS         0.0410 
     42 H10         1.8788   -2.9146   -2.0982 H         1 DAS         0.0410 
     43 H11         3.6176    0.2170   -1.4251 H         1 DAS         0.0410 
     44 H12         2.3669    1.2418   -2.2076 H         1 DAS         0.0410 
     45 H13         2.3058    1.3163    0.3071 H         1 DAS         0.0518 
     46 H14         0.7713    0.7418   -0.4292 H         1 DAS         0.0518 
     47 H15         2.8134    0.0519   -4.0684 H         1 DAS         0.0480 
     48 H16         3.6568   -1.4364   -3.5207 H         1 DAS         0.0480 
     49 H17         1.6788   -2.7908   -4.1549 H         1 DAS         0.0291 
     50 H18         0.8353   -1.3025   -4.7026 H         1 DAS         0.0291 
     51 H19         1.9933   -2.4496   -6.6574 H         1 DAS         0.4027 
     52 H20         7.9607    4.2618    2.8767 H         1 DAS         0.3239 
     53 H21        12.6182    5.3865    3.2820 H         1 DAS         0.1377 
     54 H22        12.4187    7.6732    4.1987 H         1 DAS         0.1386 
     55 H23        10.2392    8.5140    4.9885 H         1 DAS         0.1482 
     56 H24        11.7241    3.3800    2.7063 H         1 DAS         0.0551 
     57 H25        10.0303    3.4363    2.1108 H         1 DAS         0.0551 
     58 H26        10.3835    2.8074    3.7560 H         1 DAS         0.0551 
     59 H59         3.1366    0.9338    5.8844 H         1 DAS         0.0000 
     60 H60         0.0271   -2.0389    1.8933 H         1 DAS         0.0000 
@<TRIPOS>BOND
     1    1    5 1    
     2    1    2 2    
     3    1   34 1    
     4    2    3 1    
     5    2   23 1    
     6    3    4 1    
     7    4    5 2    
     8    4    6 ar   
     9    6    7 2    
    10    6   59 1    
    11    7    8 ar   
    12    7   12 ar   
    13    8    9 ar   
    14    8   35 1    
    15    9   10 ar   
    16    9   14 1    
    17   10   11 ar   
    18   10   60 1    
    19   11   13 1    
    20   11   12 ar   
    21   13   36 1    
    22   13   37 1    
    23   13   38 1    
    24   14   19 1    
    25   14   15 1    
    26   15   16 1    
    27   15   39 1    
    28   15   40 1    
    29   16   17 1    
    30   16   41 1    
    31   16   42 1    
    32   17   18 1    
    33   17   20 1    
    34   18   19 1    
    35   18   43 1    
    36   18   44 1    
    37   19   45 1    
    38   19   46 1    
    39   20   21 1    
    40   20   47 1    
    41   20   48 1    
    42   21   22 1    
    43   21   49 1    
    44   21   50 1    
    45   22   51 1    
    46   23   24 2    
    47   23   25 am   BACKBONE|DICT|INTERRES
    48   25   26 1    
    49   25   52 1    
    50   26   31 ar   
    51   26   27 ar   
    52   27   28 ar   
    53   27   33 1    
    54   28   29 ar   
    55   28   53 1    
    56   29   30 ar   
    57   29   54 1    
    58   30   31 ar   
    59   30   55 1    
    60   31   32 1    
    61   33   56 1    
    62   33   57 1    
    63   33   58 1    
@<TRIPOS>SUBSTRUCTURE
     1 DAS         1 GROUP             0       ****    0 ROOT    
@<TRIPOS>MOLECULE
~{N}-(2-chloro-6-methyl-phenyl)-2-[[6-[4-(2-hydroxyethyl)piperazin-1-yl]-2-methyl-pyrimidin-4-yl]amino]thiazole-5-carboxamide
61   64    1
SMALL
USER_CHARGES


@<TRIPOS>ATOM
      1 C1          2.8912    1.0679    8.3232 C.2       1 DAS         0.4038 
      2 C2          3.9723    1.9231    8.3673 C.2       1 DAS        -0.3015 
      3 S1          4.5696    2.1775    6.7799 S.3       1 DAS        -0.0613 
      4 C3          3.3449    1.1365    6.1786 C.cat     1 DAS         0.6645 
      5 N1          2.5297    0.6162    7.0690 N.2       1 DAS        -0.6461 
      6 N2          3.2682    0.8910    4.7931 N.pl3     1 DAS        -0.8342 
      7 C4          2.3957    0.1013    4.0050 C.ar      1 DAS         0.7028 
      8 C5          2.6090    0.0862    2.6417 C.ar      1 DAS        -0.4500 
      9 C6          1.7375   -0.6941    1.9097 C.ar      1 DAS         0.6921 
     10 N3          0.7328   -1.4099    2.4558 N.pl3     1 DAS        -0.7653 
     11 C7          0.6285   -1.3130    3.7949 C.ar      1 DAS         0.6973 
     12 N4          1.4112   -0.5888    4.6174 N.2       1 DAS        -0.7143 
     13 C8         -0.4708   -2.0904    4.4354 C.3       1 DAS        -0.1354 
     14 N5          1.9190   -0.7355    0.5227 N.pl3     1 DAS        -0.7676 
     15 C9          1.5392   -1.9638   -0.1864 C.3       1 DAS         0.2009 
     16 C10         2.2575   -2.0489   -1.5351 C.3       1 DAS         0.1680 
     17 N6          2.0315   -0.8353   -2.3298 N.4       1 DAS        -0.7428 
     18 C11         2.5393    0.3368   -1.6064 C.3       1 DAS         0.1680 
     19 C12         1.8312    0.5015   -0.2594 C.3       1 DAS         0.2009 
     20 C13         2.6768   -0.9507   -3.6371 C.3       1 DAS         0.1705 
     21 C14         1.8160   -1.7849   -4.5783 C.3       1 DAS         0.1287 
     22 O1          2.4635   -1.8825   -5.8405 O.3       1 DAS        -0.6048 
     23 C15         4.5938    2.5606    9.4788 C.2       1 DAS         0.7227 
     24 O2          5.5839    3.3227    9.3612 O.2       1 DAS        -0.5937 
     25 N7          4.0067    2.3209   10.7455 N.am      1 DAS        -0.4696 
     26 C16         4.3666    2.8310   12.0183 C.ar      1 DAS         0.0597 
     27 C17         3.4402    3.5814   12.7425 C.ar      1 DAS        -0.0507 
     28 C18         3.7814    4.0894   13.9960 C.ar      1 DAS        -0.1207 
     29 C19         5.0490    3.8469   14.5252 C.ar      1 DAS        -0.1288 
     30 C20         5.9753    3.0965   13.8010 C.ar      1 DAS        -0.1154 
     31 C21         5.6341    2.5886   12.5475 C.ar      1 DAS        -0.0124 
     32 Cl1         6.8146    1.6648   11.6875 Cl        1 DAS        -0.1012 
     33 C22         2.0740    3.8593   12.2037 C.3       1 DAS        -0.0583 
     34 H1          2.4214    0.8120    9.1681 H         1 DAS         0.0462 
     35 H3          3.3356    0.5936    2.1784 H         1 DAS         0.1532 
     36 H4         -0.4491   -1.9282    5.5232 H         1 DAS         0.0650 
     37 H5         -0.3356   -3.1609    4.2216 H         1 DAS         0.0650 
     38 H6         -1.4387   -1.7557    4.0340 H         1 DAS         0.0650 
     39 H7          0.4515   -1.9598   -0.3500 H         1 DAS         0.0518 
     40 H8          1.8140   -2.8319    0.4308 H         1 DAS         0.0518 
     41 H9          3.3386   -2.1646   -1.3680 H         1 DAS         0.0410 
     42 H10         1.8788   -2.9146   -2.0982 H         1 DAS         0.0410 
     43 H11         3.6176    0.2170   -1.4251 H         1 DAS         0.0410 
     44 H12         2.3669    1.2418   -2.2076 H         1 DAS         0.0410 
     45 H13         2.3058    1.3163    0.3071 H         1 DAS         0.0518 
     46 H14         0.7713    0.7418   -0.4292 H         1 DAS         0.0518 
     47 H15         2.8134    0.0519   -4.0684 H         1 DAS         0.0480 
     48 H16         3.6568   -1.4364   -3.5207 H         1 DAS         0.0480 
     49 H17         1.6788   -2.7908   -4.1549 H         1 DAS         0.0291 
     50 H18         0.8353   -1.3025   -4.7026 H         1 DAS         0.0291 
     51 H19         1.9933   -2.4496   -6.6574 H         1 DAS         0.4027 
     52 H20         3.1391    1.6501   10.8315 H         1 DAS         0.3239 
     53 H21         3.0672    4.6756   14.5682 H         1 DAS         0.1377 
     54 H22         5.3146    4.2423   15.5013 H         1 DAS         0.1386 
     55 H23         6.9589    2.9171   14.2280 H         1 DAS         0.1482 
     56 H24         1.5095    4.4632   12.9293 H         1 DAS         0.0551 
     57 H25         1.5482    2.9089   12.0298 H         1 DAS         0.0551 
     58 H26         2.1590    4.4102   11.2554 H         1 DAS         0.0551 
     59 H59         4.0775    1.4615    4.3140 H         1 DAS         0.0000 
     60 H60         0.0271   -2.0389    1.8933 H         1 DAS         0.0000 
     61 H61         0.9510   -0.7122   -2.4949 H         1 DAS         0.0000 
@<TRIPOS>BOND
     1    1    5 1    
     2    1    2 2    
     3    1   34 1    
     4    2    3 1    
     5    2   23 1    
     6    3    4 1    
     7    4    5 2    
     8    4    6 ar   
     9    6    7 2    
    10    6   59 1    
    11    7    8 ar   
    12    7   12 ar   
    13    8    9 ar   
    14    8   35 1    
    15    9   10 ar   
    16    9   14 1    
    17   10   11 ar   
    18   10   60 1    
    19   11   13 1    
    20   11   12 ar   
    21   13   36 1    
    22   13   37 1    
    23   13   38 1    
    24   14   19 1    
    25   14   15 1    
    26   15   16 1    
    27   15   39 1    
    28   15   40 1    
    29   16   17 1    
    30   16   41 1    
    31   16   42 1    
    32   17   18 1    
    33   17   20 1    
    34   17   61 1    
    35   18   19 1    
    36   18   43 1    
    37   18   44 1    
    38   19   45 1    
    39   19   46 1    
    40   20   21 1    
    41   20   47 1    
    42   20   48 1    
    43   21   22 1    
    44   21   49 1    
    45   21   50 1    
    46   22   51 1    
    47   23   24 2    
    48   23   25 am   BACKBONE|DICT|INTERRES
    49   25   26 1    
    50   25   52 1    
    51   26   31 ar   
    52   26   27 ar   
    53   27   28 ar   
    54   27   33 1    
    55   28   29 ar   
    56   28   53 1    
    57   29   30 ar   
    58   29   54 1    
    59   30   31 ar   
    60   30   55 1    
    61   31   32 1    
    62   33   56 1    
    63   33   57 1    
    64   33   58 1    
@<TRIPOS>SUBSTRUCTURE
     1 DAS         1 GROUP             0       ****    0 ROOT    
@<TRIPOS>MOLECULE
~{N}-(2-chloro-6-methyl-phenyl)-2-[[6-[4-(2-hydroxyethyl)piperazin-1-yl]-2-methyl-pyrimidin-4-yl]amino]thiazole-5-carboxamide
60   63    1
SMALL
USER_CHARGES


@<TRIPOS>ATOM
      1 C1          2.8912    1.0679    8.3232 C.2       1 DAS         0.4038 
      2 C2          3.9723    1.9231    8.3673 C.2       1 DAS        -0.3015 
      3 S1          4.5696    2.1775    6.7799 S.3       1 DAS        -0.0613 
      4 C3          3.3449    1.1365    6.1786 C.2       1 DAS         0.6645 
      5 N1          2.5297    0.6162    7.0690 N.2       1 DAS        -0.6461 
      6 N2          3.2682    0.8910    4.7931 N.pl3     1 DAS        -0.8342 
      7 C4          2.3957    0.1013    4.0050 C.ar      1 DAS         0.7028 
      8 C5          2.6090    0.0862    2.6417 C.ar      1 DAS        -0.4500 
      9 C6          1.7376   -0.6943    1.9097 C.ar      1 DAS         0.6921 
     10 N3          0.7328   -1.4099    2.4558 N.ar      1 DAS        -0.7653 
     11 C7          0.6283   -1.3128    3.7949 C.ar      1 DAS         0.6973 
     12 N4          1.4111   -0.5886    4.6174 N.pl3     1 DAS        -0.7143 
     13 C8         -0.4711   -2.0900    4.4354 C.3       1 DAS        -0.1354 
     14 N5          1.9199   -0.7366    0.5229 N.pl3     1 DAS        -0.7676 
     15 C9          1.5399   -1.9651   -0.1857 C.3       1 DAS         0.2009 
     16 C10         2.2588   -2.0514   -1.5340 C.3       1 DAS         0.1680 
     17 N6          2.0338   -0.8381   -2.3295 N.3       1 DAS        -0.7428 
     18 C11         2.5418    0.3342   -1.6066 C.3       1 DAS         0.1680 
     19 C12         1.8331    0.5000   -0.2600 C.3       1 DAS         0.2009 
     20 C13         2.6797   -0.9547   -3.6364 C.3       1 DAS         0.1705 
     21 C14         1.8191   -1.7889   -4.5775 C.3       1 DAS         0.1287 
     22 O1          2.4671   -1.8876   -5.8394 O.3       1 DAS        -0.6048 
     23 C15         4.5938    2.5606    9.4788 C.2       1 DAS         0.7227 
     24 O2          5.5839    3.3227    9.3612 O.2       1 DAS        -0.5937 
     25 N7          4.0067    2.3209   10.7455 N.am      1 DAS        -0.4696 
     26 C16         4.3666    2.8310   12.0183 C.ar      1 DAS         0.0597 
     27 C17         3.4402    3.5814   12.7425 C.ar      1 DAS        -0.0507 
     28 C18         3.7814    4.0894   13.9960 C.ar      1 DAS        -0.1207 
     29 C19         5.0490    3.8469   14.5252 C.ar      1 DAS        -0.1288 
     30 C20         5.9753    3.0965   13.8010 C.ar      1 DAS        -0.1154 
     31 C21         5.6341    2.5886   12.5475 C.ar      1 DAS        -0.0124 
     32 Cl1         6.8146    1.6648   11.6875 Cl        1 DAS        -0.1012 
     33 C22         2.0740    3.8593   12.2037 C.3       1 DAS        -0.0583 
     34 H1          2.3237    0.7373    9.1834 H         1 DAS         0.0462 
     35 H3          3.3354    0.5938    2.1783 H         1 DAS         0.1532 
     36 H4         -1.0335   -2.6346    3.6626 H         1 DAS         0.0650 
     37 H5         -1.1470   -1.4017    4.9640 H         1 DAS         0.0650 
     38 H6         -0.0441   -2.8070    5.1519 H         1 DAS         0.0650 
     39 H7          0.4522   -1.9607   -0.3499 H         1 DAS         0.0518 
     40 H8          1.8139   -2.8330    0.4321 H         1 DAS         0.0518 
     41 H9          3.3398   -2.1676   -1.3663 H         1 DAS         0.0410 
     42 H10         1.8800   -2.9173   -2.0968 H         1 DAS         0.0410 
     43 H11         3.6199    0.2139   -1.4246 H         1 DAS         0.0410 
     44 H12         2.3702    1.2388   -2.2084 H         1 DAS         0.0410 
     45 H13         2.3078    1.3149    0.3063 H         1 DAS         0.0518 
     46 H14         0.7734    0.7407   -0.4305 H         1 DAS         0.0518 
     47 H15         2.8170    0.0477   -4.0683 H         1 DAS         0.0480 
     48 H16         3.6595   -1.4408   -3.5192 H         1 DAS         0.0480 
     49 H17         1.6811   -2.7945   -4.1536 H         1 DAS         0.0291 
     50 H18         0.8386   -1.3061   -4.7027 H         1 DAS         0.0291 
     51 H19         1.9971   -2.4549   -6.6562 H         1 DAS         0.4027 
     52 H20         3.1391    1.6501   10.8315 H         1 DAS         0.3239 
     53 H21         3.0672    4.6756   14.5682 H         1 DAS         0.1377 
     54 H22         5.3146    4.2423   15.5013 H         1 DAS         0.1386 
     55 H23         6.9589    2.9171   14.2280 H         1 DAS         0.1482 
     56 H24         1.5095    4.4632   12.9293 H         1 DAS         0.0551 
     57 H25         1.5482    2.9089   12.0298 H         1 DAS         0.0551 
     58 H26         2.1590    4.4102   11.2554 H         1 DAS         0.0551 
     59 H59         4.0775    1.4615    4.3140 H         1 DAS         0.0000 
     60 H60         1.2216   -0.5917    5.7010 H         1 DAS         0.0000 
@<TRIPOS>BOND
     1    1    5 1    
     2    1    2 2    
     3    1   34 1    
     4    2    3 1    
     5    2   23 1    
     6    3    4 1    
     7    4    5 2    
     8    4    6 1    
     9    6    7 1    
    10    6   59 1    
    11    7   12 ar   
    12    7    8 ar   
    13    8   35 1    
    14    8    9 ar   
    15    9   14 1    
    16    9   10 ar   
    17   10   11 ar   
    18   11   13 1    
    19   11   12 ar   
    20   12   60 1    
    21   13   36 1    
    22   13   37 1    
    23   13   38 1    
    24   14   19 1    
    25   14   15 1    
    26   15   16 1    
    27   15   39 1    
    28   15   40 1    
    29   16   17 1    
    30   16   41 1    
    31   16   42 1    
    32   17   18 1    
    33   17   20 1    
    34   18   19 1    
    35   18   43 1    
    36   18   44 1    
    37   19   45 1    
    38   19   46 1    
    39   20   21 1    
    40   20   47 1    
    41   20   48 1    
    42   21   22 1    
    43   21   49 1    
    44   21   50 1    
    45   22   51 1    
    46   23   24 2    
    47   23   25 am   BACKBONE|DICT|INTERRES
    48   25   26 1    
    49   25   52 1    
    50   26   31 ar   
    51   26   27 ar   
    52   27   28 ar   
    53   27   33 1    
    54   28   29 ar   
    55   28   53 1    
    56   29   30 ar   
    57   29   54 1    
    58   30   31 ar   
    59   30   55 1    
    60   31   32 1    
    61   33   56 1    
    62   33   57 1    
    63   33   58 1    
@<TRIPOS>SUBSTRUCTURE
     1 DAS         1 GROUP             0       ****    0 ROOT    
@<TRIPOS>MOLECULE
~{N}-(2-chloro-6-methyl-phenyl)-2-[[6-[4-(2-hydroxyethyl)piperazin-1-yl]-2-methyl-pyrimidin-4-yl]amino]thiazole-5-carboxamide
59   62    1
SMALL
USER_CHARGES


@<TRIPOS>ATOM
      1 C1          2.8912    1.0679    8.3232 C.2       1 DAS         0.4038 
      2 C2          3.9723    1.9231    8.3673 C.2       1 DAS        -0.3015 
      3 S1          4.5696    2.1775    6.7799 S.3       1 DAS        -0.0613 
      4 C3          3.3449    1.1365    6.1786 C.2       1 DAS         0.6645 
      5 N1          2.5297    0.6162    7.0690 N.2       1 DAS        -0.6461 
      6 N2          3.2682    0.8910    4.7931 N.pl3     1 DAS        -0.8342 
      7 C4          2.3957    0.1013    4.0050 C.ar      1 DAS         0.7028 
      8 C5          2.6090    0.0862    2.6417 C.ar      1 DAS        -0.4500 
      9 C6          1.7376   -0.6943    1.9097 C.ar      1 DAS         0.6921 
     10 N3          0.7328   -1.4099    2.4558 N.ar      1 DAS        -0.7653 
     11 C7          0.6283   -1.3128    3.7949 C.ar      1 DAS         0.6973 
     12 N4          1.4111   -0.5886    4.6174 N.ar      1 DAS        -0.7143 
     13 C8         -0.4711   -2.0900    4.4354 C.3       1 DAS        -0.1354 
     14 N5          1.9199   -0.7366    0.5229 N.pl3     1 DAS        -0.7676 
     15 C9          1.5399   -1.9651   -0.1857 C.3       1 DAS         0.2009 
     16 C10         2.2588   -2.0514   -1.5340 C.3       1 DAS         0.1680 
     17 N6          2.0338   -0.8381   -2.3295 N.4       1 DAS        -0.7428 
     18 C11         2.5418    0.3342   -1.6066 C.3       1 DAS         0.1680 
     19 C12         1.8331    0.5000   -0.2600 C.3       1 DAS         0.2009 
     20 C13         2.6797   -0.9547   -3.6364 C.3       1 DAS         0.1705 
     21 C14         1.8191   -1.7889   -4.5775 C.3       1 DAS         0.1287 
     22 O1          2.4671   -1.8876   -5.8394 O.3       1 DAS        -0.6048 
     23 C15         4.5938    2.5606    9.4788 C.2       1 DAS         0.7227 
     24 O2          5.5839    3.3227    9.3612 O.co2     1 DAS        -0.5937 
     25 N7          4.0067    2.3209   10.7455 N.2       1 DAS        -0.4696 
     26 C16         4.3666    2.8310   12.0183 C.ar      1 DAS         0.0597 
     27 C17         3.4402    3.5814   12.7425 C.ar      1 DAS        -0.0507 
     28 C18         3.7814    4.0894   13.9960 C.ar      1 DAS        -0.1207 
     29 C19         5.0490    3.8469   14.5252 C.ar      1 DAS        -0.1288 
     30 C20         5.9753    3.0965   13.8010 C.ar      1 DAS        -0.1154 
     31 C21         5.6341    2.5886   12.5475 C.ar      1 DAS        -0.0124 
     32 Cl1         6.8146    1.6648   11.6875 Cl        1 DAS        -0.1012 
     33 C22         2.0740    3.8593   12.2037 C.3       1 DAS        -0.0583 
     34 H1          2.3237    0.7373    9.1834 H         1 DAS         0.0462 
     35 H3          3.3354    0.5938    2.1783 H         1 DAS         0.1532 
     36 H4         -1.0335   -2.6346    3.6626 H         1 DAS         0.0650 
     37 H5         -1.1470   -1.4017    4.9640 H         1 DAS         0.0650 
     38 H6         -0.0441   -2.8070    5.1519 H         1 DAS         0.0650 
     39 H7          0.4522   -1.9607   -0.3499 H         1 DAS         0.0518 
     40 H8          1.8139   -2.8330    0.4321 H         1 DAS         0.0518 
     41 H9          3.3398   -2.1676   -1.3663 H         1 DAS         0.0410 
     42 H10         1.8800   -2.9173   -2.0968 H         1 DAS         0.0410 
     43 H11         3.6199    0.2139   -1.4246 H         1 DAS         0.0410 
     44 H12         2.3702    1.2388   -2.2084 H         1 DAS         0.0410 
     45 H13         2.3078    1.3149    0.3063 H         1 DAS         0.0518 
     46 H14         0.7734    0.7407   -0.4305 H         1 DAS         0.0518 
     47 H15         2.8170    0.0477   -4.0683 H         1 DAS         0.0480 
     48 H16         3.6595   -1.4408   -3.5192 H         1 DAS         0.0480 
     49 H17         1.6811   -2.7945   -4.1536 H         1 DAS         0.0291 
     50 H18         0.8386   -1.3061   -4.7027 H         1 DAS         0.0291 
     51 H19         1.9971   -2.4549   -6.6562 H         1 DAS         0.4027 
     52 H21         3.0672    4.6756   14.5682 H         1 DAS         0.1377 
     53 H22         5.3146    4.2423   15.5013 H         1 DAS         0.1386 
     54 H23         6.9589    2.9171   14.2280 H         1 DAS         0.1482 
     55 H24         1.5095    4.4632   12.9293 H         1 DAS         0.0551 
     56 H25         1.5482    2.9089   12.0298 H         1 DAS         0.0551 
     57 H26         2.1590    4.4102   11.2554 H         1 DAS         0.0551 
     58 H58         4.0775    1.4615    4.3140 H         1 DAS         0.0000 
     59 H59         0.9534   -0.7146   -2.4953 H         1 DAS         0.0000 
@<TRIPOS>BOND
     1    1    5 1    
     2    1    2 2    
     3    1   34 1    
     4    2    3 1    
     5    2   23 1    
     6    3    4 1    
     7    4    5 2    
     8    4    6 1    
     9    6    7 1    
    10    6   58 1    
    11    7   12 ar   
    12    7    8 ar   
    13    8   35 1    
    14    8    9 ar   
    15    9   14 1    
    16    9   10 ar   
    17   10   11 ar   
    18   11   13 1    
    19   11   12 ar   
    20   13   36 1    
    21   13   37 1    
    22   13   38 1    
    23   14   19 1    
    24   14   15 1    
    25   15   16 1    
    26   15   39 1    
    27   15   40 1    
    28   16   17 1    
    29   16   41 1    
    30   16   42 1    
    31   17   18 1    
    32   17   20 1    
    33   17   59 1    
    34   18   19 1    
    35   18   43 1    
    36   18   44 1    
    37   19   45 1    
    38   19   46 1    
    39   20   21 1    
    40   20   47 1    
    41   20   48 1    
    42   21   22 1    
    43   21   49 1    
    44   21   50 1    
    45   22   51 1    
    46   23   24 1    
    47   23   25 2    
    48   25   26 1    
    49   26   31 ar   
    50   26   27 ar   
    51   27   28 ar   
    52   27   33 1    
    53   28   29 ar   
    54   28   52 1    
    55   29   30 ar   
    56   29   53 1    
    57   30   31 ar   
    58   30   54 1    
    59   31   32 1    
    60   33   55 1    
    61   33   56 1    
    62   33   57 1    
@<TRIPOS>SUBSTRUCTURE
     1 DAS         1 GROUP             0       ****    0 ROOT    
@<TRIPOS>MOLECULE
~{N}-(2-chloro-6-methyl-phenyl)-2-[[6-[4-(2-hydroxyethyl)piperazin-1-yl]-2-methyl-pyrimidin-4-yl]amino]thiazole-5-carboxamide
58   61    1
SMALL
USER_CHARGES


@<TRIPOS>ATOM
      1 C1          2.8912    1.0679    8.3232 C.2       1 DAS         0.4038 
      2 C2          3.9723    1.9231    8.3673 C.2       1 DAS        -0.3015 
      3 S1          4.5696    2.1775    6.7799 S.3       1 DAS        -0.0613 
      4 C3          3.3449    1.1365    6.1786 C.2       1 DAS         0.6645 
      5 N1          2.5297    0.6162    7.0690 N.2       1 DAS        -0.6461 
      6 N2          3.2682    0.8910    4.7931 N.pl3     1 DAS        -0.8342 
      7 C4          2.3957    0.1013    4.0050 C.ar      1 DAS         0.7028 
      8 C5          2.6090    0.0862    2.6417 C.ar      1 DAS        -0.4500 
      9 C6          1.7376   -0.6943    1.9097 C.ar      1 DAS         0.6921 
     10 N3          0.7328   -1.4099    2.4558 N.ar      1 DAS        -0.7653 
     11 C7          0.6283   -1.3128    3.7949 C.ar      1 DAS         0.6973 
     12 N4          1.4111   -0.5886    4.6174 N.ar      1 DAS        -0.7143 
     13 C8         -0.4711   -2.0900    4.4354 C.3       1 DAS        -0.1354 
     14 N5          1.9199   -0.7366    0.5229 N.pl3     1 DAS        -0.7676 
     15 C9          1.5399   -1.9651   -0.1857 C.3       1 DAS         0.2009 
     16 C10         2.2588   -2.0514   -1.5340 C.3       1 DAS         0.1680 
     17 N6          2.0338   -0.8381   -2.3295 N.3       1 DAS        -0.7428 
     18 C11         2.5418    0.3342   -1.6066 C.3       1 DAS         0.1680 
     19 C12         1.8331    0.5000   -0.2600 C.3       1 DAS         0.2009 
     20 C13         2.6797   -0.9547   -3.6364 C.3       1 DAS         0.1705 
     21 C14         1.8191   -1.7889   -4.5775 C.3       1 DAS         0.1287 
     22 O1          2.4671   -1.8876   -5.8394 O.3       1 DAS        -0.6048 
     23 C15         4.5938    2.5606    9.4788 C.2       1 DAS         0.7227 
     24 O2          5.5839    3.3227    9.3612 O.co2     1 DAS        -0.5937 
     25 N7          4.0067    2.3209   10.7455 N.2       1 DAS        -0.4696 
     26 C16         4.3666    2.8310   12.0183 C.ar      1 DAS         0.0597 
     27 C17         3.4402    3.5814   12.7425 C.ar      1 DAS        -0.0507 
     28 C18         3.7814    4.0894   13.9960 C.ar      1 DAS        -0.1207 
     29 C19         5.0490    3.8469   14.5252 C.ar      1 DAS        -0.1288 
     30 C20         5.9753    3.0965   13.8010 C.ar      1 DAS        -0.1154 
     31 C21         5.6341    2.5886   12.5475 C.ar      1 DAS        -0.0124 
     32 Cl1         6.8146    1.6648   11.6875 Cl        1 DAS        -0.1012 
     33 C22         2.0740    3.8593   12.2037 C.3       1 DAS        -0.0583 
     34 H1          2.3237    0.7373    9.1834 H         1 DAS         0.0462 
     35 H3          3.3354    0.5938    2.1783 H         1 DAS         0.1532 
     36 H4         -1.0335   -2.6346    3.6626 H         1 DAS         0.0650 
     37 H5         -1.1470   -1.4017    4.9640 H         1 DAS         0.0650 
     38 H6         -0.0441   -2.8070    5.1519 H         1 DAS         0.0650 
     39 H7          0.4522   -1.9607   -0.3499 H         1 DAS         0.0518 
     40 H8          1.8139   -2.8330    0.4321 H         1 DAS         0.0518 
     41 H9          3.3398   -2.1676   -1.3663 H         1 DAS         0.0410 
     42 H10         1.8800   -2.9173   -2.0968 H         1 DAS         0.0410 
     43 H11         3.6199    0.2139   -1.4246 H         1 DAS         0.0410 
     44 H12         2.3702    1.2388   -2.2084 H         1 DAS         0.0410 
     45 H13         2.3078    1.3149    0.3063 H         1 DAS         0.0518 
     46 H14         0.7734    0.7407   -0.4305 H         1 DAS         0.0518 
     47 H15         2.8170    0.0477   -4.0683 H         1 DAS         0.0480 
     48 H16         3.6595   -1.4408   -3.5192 H         1 DAS         0.0480 
     49 H17         1.6811   -2.7945   -4.1536 H         1 DAS         0.0291 
     50 H18         0.8386   -1.3061   -4.7027 H         1 DAS         0.0291 
     51 H19         1.9971   -2.4549   -6.6562 H         1 DAS         0.4027 
     52 H21         3.0672    4.6756   14.5682 H         1 DAS         0.1377 
     53 H22         5.3146    4.2423   15.5013 H         1 DAS         0.1386 
     54 H23         6.9589    2.9171   14.2280 H         1 DAS         0.1482 
     55 H24         1.5095    4.4632   12.9293 H         1 DAS         0.0551 
     56 H25         1.5482    2.9089   12.0298 H         1 DAS         0.0551 
     57 H26         2.1590    4.4102   11.2554 H         1 DAS         0.0551 
     58 H58         4.0775    1.4615    4.3140 H         1 DAS         0.0000 
@<TRIPOS>BOND
     1    1    5 1    
     2    1    2 2    
     3    1   34 1    
     4    2    3 1    
     5    2   23 1    
     6    3    4 1    
     7    4    5 2    
     8    4    6 1    
     9    6    7 1    
    10    6   58 1    
    11    7   12 ar   
    12    7    8 ar   
    13    8   35 1    
    14    8    9 ar   
    15    9   14 1    
    16    9   10 ar   
    17   10   11 ar   
    18   11   13 1    
    19   11   12 ar   
    20   13   36 1    
    21   13   37 1    
    22   13   38 1    
    23   14   19 1    
    24   14   15 1    
    25   15   16 1    
    26   15   39 1    
    27   15   40 1    
    28   16   17 1    
    29   16   41 1    
    30   16   42 1    
    31   17   18 1    
    32   17   20 1    
    33   18   19 1    
    34   18   43 1    
    35   18   44 1    
    36   19   45 1    
    37   19   46 1    
    38   20   21 1    
    39   20   47 1    
    40   20   48 1    
    41   21   22 1    
    42   21   49 1    
    43   21   50 1    
    44   22   51 1    
    45   23   24 1    
    46   23   25 2    
    47   25   26 1    
    48   26   31 ar   
    49   26   27 ar   
    50   27   28 ar   
    51   27   33 1    
    52   28   29 ar   
    53   28   52 1    
    54   29   30 ar   
    55   29   53 1    
    56   30   31 ar   
    57   30   54 1    
    58   31   32 1    
    59   33   55 1    
    60   33   56 1    
    61   33   57 1    
@<TRIPOS>SUBSTRUCTURE
     1 DAS         1 GROUP             0       ****    0 ROOT    
@<TRIPOS>MOLECULE
~{N}-(2-chloro-6-methyl-phenyl)-2-[[6-[4-(2-hydroxyethyl)piperazin-1-yl]-2-methyl-pyrimidin-4-yl]amino]thiazole-5-carboxamide
61   64    1
SMALL
USER_CHARGES


@<TRIPOS>ATOM
      1 C1          2.8912    1.0679    8.3232 C.2       1 DAS         0.4038 
      2 C2          3.9723    1.9231    8.3673 C.2       1 DAS        -0.3015 
      3 S1          4.5696    2.1775    6.7799 S.3       1 DAS        -0.0613 
      4 C3          3.3449    1.1365    6.1786 C.2       1 DAS         0.6645 
      5 N1          2.5297    0.6162    7.0690 N.2       1 DAS        -0.6461 
      6 N2          3.2682    0.8910    4.7931 N.pl3     1 DAS        -0.8342 
      7 C4          2.3957    0.1013    4.0050 C.ar      1 DAS         0.7028 
      8 C5          2.6090    0.0862    2.6417 C.ar      1 DAS        -0.4500 
      9 C6          1.7376   -0.6943    1.9097 C.ar      1 DAS         0.6921 
     10 N3          0.7328   -1.4099    2.4558 N.ar      1 DAS        -0.7653 
     11 C7          0.6283   -1.3128    3.7949 C.ar      1 DAS         0.6973 
     12 N4          1.4111   -0.5886    4.6174 N.pl3     1 DAS        -0.7143 
     13 C8         -0.4711   -2.0900    4.4354 C.3       1 DAS        -0.1354 
     14 N5          1.9199   -0.7366    0.5229 N.pl3     1 DAS        -0.7676 
     15 C9          1.5399   -1.9651   -0.1857 C.3       1 DAS         0.2009 
     16 C10         2.2588   -2.0514   -1.5340 C.3       1 DAS         0.1680 
     17 N6          2.0338   -0.8381   -2.3295 N.4       1 DAS        -0.7428 
     18 C11         2.5418    0.3342   -1.6066 C.3       1 DAS         0.1680 
     19 C12         1.8331    0.5000   -0.2600 C.3       1 DAS         0.2009 
     20 C13         2.6797   -0.9547   -3.6364 C.3       1 DAS         0.1705 
     21 C14         1.8191   -1.7889   -4.5775 C.3       1 DAS         0.1287 
     22 O1          2.4671   -1.8876   -5.8394 O.3       1 DAS        -0.6048 
     23 C15         4.5938    2.5606    9.4788 C.2       1 DAS         0.7227 
     24 O2          5.5839    3.3227    9.3612 O.2       1 DAS        -0.5937 
     25 N7          4.0067    2.3209   10.7455 N.am      1 DAS        -0.4696 
     26 C16         4.3666    2.8310   12.0183 C.ar      1 DAS         0.0597 
     27 C17         3.4402    3.5814   12.7425 C.ar      1 DAS        -0.0507 
     28 C18         3.7814    4.0894   13.9960 C.ar      1 DAS        -0.1207 
     29 C19         5.0490    3.8469   14.5252 C.ar      1 DAS        -0.1288 
     30 C20         5.9753    3.0965   13.8010 C.ar      1 DAS        -0.1154 
     31 C21         5.6341    2.5886   12.5475 C.ar      1 DAS        -0.0124 
     32 Cl1         6.8146    1.6648   11.6875 Cl        1 DAS        -0.1012 
     33 C22         2.0740    3.8593   12.2037 C.3       1 DAS        -0.0583 
     34 H1          2.3237    0.7373    9.1834 H         1 DAS         0.0462 
     35 H3          3.3354    0.5938    2.1783 H         1 DAS         0.1532 
     36 H4         -1.0335   -2.6346    3.6626 H         1 DAS         0.0650 
     37 H5         -1.1470   -1.4017    4.9640 H         1 DAS         0.0650 
     38 H6         -0.0441   -2.8070    5.1519 H         1 DAS         0.0650 
     39 H7          0.4522   -1.9607   -0.3499 H         1 DAS         0.0518 
     40 H8          1.8139   -2.8330    0.4321 H         1 DAS         0.0518 
     41 H9          3.3398   -2.1676   -1.3663 H         1 DAS         0.0410 
     42 H10         1.8800   -2.9173   -2.0968 H         1 DAS         0.0410 
     43 H11         3.6199    0.2139   -1.4246 H         1 DAS         0.0410 
     44 H12         2.3702    1.2388   -2.2084 H         1 DAS         0.0410 
     45 H13         2.3078    1.3149    0.3063 H         1 DAS         0.0518 
     46 H14         0.7734    0.7407   -0.4305 H         1 DAS         0.0518 
     47 H15         2.8170    0.0477   -4.0683 H         1 DAS         0.0480 
     48 H16         3.6595   -1.4408   -3.5192 H         1 DAS         0.0480 
     49 H17         1.6811   -2.7945   -4.1536 H         1 DAS         0.0291 
     50 H18         0.8386   -1.3061   -4.7027 H         1 DAS         0.0291 
     51 H19         1.9971   -2.4549   -6.6562 H         1 DAS         0.4027 
     52 H20         3.1391    1.6501   10.8315 H         1 DAS         0.3239 
     53 H21         3.0672    4.6756   14.5682 H         1 DAS         0.1377 
     54 H22         5.3146    4.2423   15.5013 H         1 DAS         0.1386 
     55 H23         6.9589    2.9171   14.2280 H         1 DAS         0.1482 
     56 H24         1.5095    4.4632   12.9293 H         1 DAS         0.0551 
     57 H25         1.5482    2.9089   12.0298 H         1 DAS         0.0551 
     58 H26         2.1590    4.4102   11.2554 H         1 DAS         0.0551 
     59 H59         4.0775    1.4615    4.3140 H         1 DAS         0.0000 
     60 H60         1.2216   -0.5917    5.7010 H         1 DAS         0.0000 
     61 H61         0.9534   -0.7146   -2.4953 H         1 DAS         0.0000 
@<TRIPOS>BOND
     1    1    5 1    
     2    1    2 2    
     3    1   34 1    
     4    2    3 1    
     5    2   23 1    
     6    3    4 1    
     7    4    5 2    
     8    4    6 1    
     9    6    7 1    
    10    6   59 1    
    11    7   12 ar   
    12    7    8 ar   
    13    8   35 1    
    14    8    9 ar   
    15    9   14 1    
    16    9   10 ar   
    17   10   11 ar   
    18   11   13 1    
    19   11   12 ar   
    20   12   60 1    
    21   13   36 1    
    22   13   37 1    
    23   13   38 1    
    24   14   19 1    
    25   14   15 1    
    26   15   16 1    
    27   15   39 1    
    28   15   40 1    
    29   16   17 1    
    30   16   41 1    
    31   16   42 1    
    32   17   18 1    
    33   17   20 1    
    34   17   61 1    
    35   18   19 1    
    36   18   43 1    
    37   18   44 1    
    38   19   45 1    
    39   19   46 1    
    40   20   21 1    
    41   20   47 1    
    42   20   48 1    
    43   21   22 1    
    44   21   49 1    
    45   21   50 1    
    46   22   51 1    
    47   23   24 2    
    48   23   25 am   BACKBONE|DICT|INTERRES
    49   25   26 1    
    50   25   52 1    
    51   26   31 ar   
    52   26   27 ar   
    53   27   28 ar   
    54   27   33 1    
    55   28   29 ar   
    56   28   53 1    
    57   29   30 ar   
    58   29   54 1    
    59   30   31 ar   
    60   30   55 1    
    61   31   32 1    
    62   33   56 1    
    63   33   57 1    
    64   33   58 1    
@<TRIPOS>SUBSTRUCTURE
     1 DAS         1 GROUP             0       ****    0 ROOT    
@<TRIPOS>MOLECULE
~{N}-(2-chloro-6-methyl-phenyl)-2-[[6-[4-(2-hydroxyethyl)piperazin-1-yl]-2-methyl-pyrimidin-4-yl]amino]thiazole-5-carboxamide
59   62    1
SMALL
USER_CHARGES


@<TRIPOS>ATOM
      1 C1          5.9008    2.7554    3.3004 C.2       1 DAS         0.4038 
      2 C2          6.2579    3.2019    4.5555 C.2       1 DAS        -0.3015 
      3 S1          5.2005    2.5310    5.7272 S.3       1 DAS        -0.0613 
      4 C3          4.3683    1.7104    4.4705 C.cat     1 DAS         0.6645 
      5 N1          4.8177    1.8998    3.2498 N.2       1 DAS        -0.6461 
      6 N2          3.2682    0.8910    4.7931 N.pl3     1 DAS        -0.8342 
      7 C4          2.3957    0.1013    4.0050 C.ar      1 DAS         0.7028 
      8 C5          2.6090    0.0862    2.6417 C.ar      1 DAS        -0.4500 
      9 C6          1.7375   -0.6941    1.9097 C.ar      1 DAS         0.6921 
     10 N3          0.7328   -1.4099    2.4558 N.pl3     1 DAS        -0.7653 
     11 C7          0.6285   -1.3130    3.7949 C.ar      1 DAS         0.6973 
     12 N4          1.4112   -0.5888    4.6174 N.2       1 DAS        -0.7143 
     13 C8         -0.4708   -2.0904    4.4354 C.3       1 DAS        -0.1354 
     14 N5          1.9190   -0.7355    0.5227 N.pl3     1 DAS        -0.7676 
     15 C9          1.5392   -1.9638   -0.1864 C.3       1 DAS         0.2009 
     16 C10         2.2575   -2.0489   -1.5351 C.3       1 DAS         0.1680 
     17 N6          2.0315   -0.8353   -2.3298 N.3       1 DAS        -0.7428 
     18 C11         2.5393    0.3368   -1.6064 C.3       1 DAS         0.1680 
     19 C12         1.8312    0.5015   -0.2594 C.3       1 DAS         0.2009 
     20 C13         2.6768   -0.9507   -3.6371 C.3       1 DAS         0.1705 
     21 C14         1.8160   -1.7849   -4.5783 C.3       1 DAS         0.1287 
     22 O1          2.4635   -1.8825   -5.8405 O.3       1 DAS        -0.6048 
     23 C15         7.3082    4.0774    4.9540 C.2       1 DAS         0.7227 
     24 O2          7.5125    4.3963    6.1504 O.co2     1 DAS        -0.5937 
     25 N7          8.1534    4.5507    3.9204 N.2       1 DAS        -0.4696 
     26 C16         9.2898    5.3947    3.9991 C.ar      1 DAS         0.0597 
     27 C17        10.5250    4.9239    3.5539 C.ar      1 DAS        -0.0507 
     28 C18        11.6511    5.7438    3.6257 C.ar      1 DAS        -0.1207 
     29 C19        11.5420    7.0347    4.1429 C.ar      1 DAS        -0.1288 
     30 C20        10.3067    7.5056    4.5881 C.ar      1 DAS        -0.1154 
     31 C21         9.1806    6.6855    4.5162 C.ar      1 DAS        -0.0124 
     32 Cl1         7.6720    7.3123    5.0798 Cl        1 DAS        -0.1012 
     33 C22        10.6757    3.5459    2.9948 C.3       1 DAS        -0.0583 
     34 H1          6.4175    3.0537    2.4979 H         1 DAS         0.0462 
     35 H3          3.3356    0.5936    2.1784 H         1 DAS         0.1532 
     36 H4         -0.4491   -1.9282    5.5232 H         1 DAS         0.0650 
     37 H5         -0.3356   -3.1609    4.2216 H         1 DAS         0.0650 
     38 H6         -1.4387   -1.7557    4.0340 H         1 DAS         0.0650 
     39 H7          0.4515   -1.9598   -0.3500 H         1 DAS         0.0518 
     40 H8          1.8140   -2.8319    0.4308 H         1 DAS         0.0518 
     41 H9          3.3386   -2.1646   -1.3680 H         1 DAS         0.0410 
     42 H10         1.8788   -2.9146   -2.0982 H         1 DAS         0.0410 
     43 H11         3.6176    0.2170   -1.4251 H         1 DAS         0.0410 
     44 H12         2.3669    1.2418   -2.2076 H         1 DAS         0.0410 
     45 H13         2.3058    1.3163    0.3071 H         1 DAS         0.0518 
     46 H14         0.7713    0.7418   -0.4292 H         1 DAS         0.0518 
     47 H15         2.8134    0.0519   -4.0684 H         1 DAS         0.0480 
     48 H16         3.6568   -1.4364   -3.5207 H         1 DAS         0.0480 
     49 H17         1.6788   -2.7908   -4.1549 H         1 DAS         0.0291 
     50 H18         0.8353   -1.3025   -4.7026 H         1 DAS         0.0291 
     51 H19         1.9933   -2.4496   -6.6574 H         1 DAS         0.4027 
     52 H21        12.6182    5.3865    3.2820 H         1 DAS         0.1377 
     53 H22        12.4187    7.6732    4.1987 H         1 DAS         0.1386 
     54 H23        10.2392    8.5140    4.9885 H         1 DAS         0.1482 
     55 H24        11.7241    3.3800    2.7063 H         1 DAS         0.0551 
     56 H25        10.0303    3.4363    2.1108 H         1 DAS         0.0551 
     57 H26        10.3835    2.8074    3.7560 H         1 DAS         0.0551 
     58 H58         3.1366    0.9338    5.8844 H         1 DAS         0.0000 
     59 H59         0.0271   -2.0389    1.8933 H         1 DAS         0.0000 
@<TRIPOS>BOND
     1    1    5 1    
     2    1    2 2    
     3    1   34 1    
     4    2    3 1    
     5    2   23 1    
     6    3    4 1    
     7    4    5 2    
     8    4    6 ar   
     9    6    7 2    
    10    6   58 1    
    11    7    8 ar   
    12    7   12 ar   
    13    8    9 ar   
    14    8   35 1    
    15    9   10 ar   
    16    9   14 1    
    17   10   11 ar   
    18   10   59 1    
    19   11   13 1    
    20   11   12 ar   
    21   13   36 1    
    22   13   37 1    
    23   13   38 1    
    24   14   19 1    
    25   14   15 1    
    26   15   16 1    
    27   15   39 1    
    28   15   40 1    
    29   16   17 1    
    30   16   41 1    
    31   16   42 1    
    32   17   18 1    
    33   17   20 1    
    34   18   19 1    
    35   18   43 1    
    36   18   44 1    
    37   19   45 1    
    38   19   46 1    
    39   20   21 1    
    40   20   47 1    
    41   20   48 1    
    42   21   22 1    
    43   21   49 1    
    44   21   50 1    
    45   22   51 1    
    46   23   24 1    
    47   23   25 2    
    48   25   26 1    
    49   26   31 ar   
    50   26   27 ar   
    51   27   28 ar   
    52   27   33 1    
    53   28   29 ar   
    54   28   52 1    
    55   29   30 ar   
    56   29   53 1    
    57   30   31 ar   
    58   30   54 1    
    59   31   32 1    
    60   33   55 1    
    61   33   56 1    
    62   33   57 1    
@<TRIPOS>SUBSTRUCTURE
     1 DAS         1 GROUP             0       ****    0 ROOT    
@<TRIPOS>MOLECULE
~{N}-(2-chloro-6-methyl-phenyl)-2-[[6-[4-(2-hydroxyethyl)piperazin-1-yl]-2-methyl-pyrimidin-4-yl]amino]thiazole-5-carboxamide
59   62    1
SMALL
USER_CHARGES


@<TRIPOS>ATOM
      1 C1          2.8912    1.0679    8.3232 C.2       1 DAS         0.4038 
      2 C2          3.9723    1.9231    8.3673 C.2       1 DAS        -0.3015 
      3 S1          4.5696    2.1775    6.7799 S.3       1 DAS        -0.0613 
      4 C3          3.3449    1.1365    6.1786 C.cat     1 DAS         0.6645 
      5 N1          2.5297    0.6162    7.0690 N.2       1 DAS        -0.6461 
      6 N2          3.2682    0.8910    4.7931 N.pl3     1 DAS        -0.8342 
      7 C4          2.3957    0.1013    4.0050 C.ar      1 DAS         0.7028 
      8 C5          2.6090    0.0862    2.6417 C.ar      1 DAS        -0.4500 
      9 C6          1.7375   -0.6941    1.9097 C.ar      1 DAS         0.6921 
     10 N3          0.7328   -1.4099    2.4558 N.pl3     1 DAS        -0.7653 
     11 C7          0.6285   -1.3130    3.7949 C.ar      1 DAS         0.6973 
     12 N4          1.4112   -0.5888    4.6174 N.2       1 DAS        -0.7143 
     13 C8         -0.4708   -2.0904    4.4354 C.3       1 DAS        -0.1354 
     14 N5          1.9190   -0.7355    0.5227 N.pl3     1 DAS        -0.7676 
     15 C9          1.5392   -1.9638   -0.1864 C.3       1 DAS         0.2009 
     16 C10         2.2575   -2.0489   -1.5351 C.3       1 DAS         0.1680 
     17 N6          2.0315   -0.8353   -2.3298 N.3       1 DAS        -0.7428 
     18 C11         2.5393    0.3368   -1.6064 C.3       1 DAS         0.1680 
     19 C12         1.8312    0.5015   -0.2594 C.3       1 DAS         0.2009 
     20 C13         2.6768   -0.9507   -3.6371 C.3       1 DAS         0.1705 
     21 C14         1.8160   -1.7849   -4.5783 C.3       1 DAS         0.1287 
     22 O1          2.4635   -1.8825   -5.8405 O.3       1 DAS        -0.6048 
     23 C15         4.5938    2.5606    9.4788 C.2       1 DAS         0.7227 
     24 O2          5.5839    3.3227    9.3612 O.co2     1 DAS        -0.5937 
     25 N7          4.0067    2.3209   10.7455 N.2       1 DAS        -0.4696 
     26 C16         4.3666    2.8310   12.0183 C.ar      1 DAS         0.0597 
     27 C17         3.4402    3.5814   12.7425 C.ar      1 DAS        -0.0507 
     28 C18         3.7814    4.0894   13.9960 C.ar      1 DAS        -0.1207 
     29 C19         5.0490    3.8469   14.5252 C.ar      1 DAS        -0.1288 
     30 C20         5.9753    3.0965   13.8010 C.ar      1 DAS        -0.1154 
     31 C21         5.6341    2.5886   12.5475 C.ar      1 DAS        -0.0124 
     32 Cl1         6.8146    1.6648   11.6875 Cl        1 DAS        -0.1012 
     33 C22         2.0740    3.8593   12.2037 C.3       1 DAS        -0.0583 
     34 H1          2.4214    0.8120    9.1681 H         1 DAS         0.0462 
     35 H3          3.3356    0.5936    2.1784 H         1 DAS         0.1532 
     36 H4         -0.4491   -1.9282    5.5232 H         1 DAS         0.0650 
     37 H5         -0.3356   -3.1609    4.2216 H         1 DAS         0.0650 
     38 H6         -1.4387   -1.7557    4.0340 H         1 DAS         0.0650 
     39 H7          0.4515   -1.9598   -0.3500 H         1 DAS         0.0518 
     40 H8          1.8140   -2.8319    0.4308 H         1 DAS         0.0518 
     41 H9          3.3386   -2.1646   -1.3680 H         1 DAS         0.0410 
     42 H10         1.8788   -2.9146   -2.0982 H         1 DAS         0.0410 
     43 H11         3.6176    0.2170   -1.4251 H         1 DAS         0.0410 
     44 H12         2.3669    1.2418   -2.2076 H         1 DAS         0.0410 
     45 H13         2.3058    1.3163    0.3071 H         1 DAS         0.0518 
     46 H14         0.7713    0.7418   -0.4292 H         1 DAS         0.0518 
     47 H15         2.8134    0.0519   -4.0684 H         1 DAS         0.0480 
     48 H16         3.6568   -1.4364   -3.5207 H         1 DAS         0.0480 
     49 H17         1.6788   -2.7908   -4.1549 H         1 DAS         0.0291 
     50 H18         0.8353   -1.3025   -4.7026 H         1 DAS         0.0291 
     51 H19         1.9933   -2.4496   -6.6574 H         1 DAS         0.4027 
     52 H21         3.0672    4.6756   14.5682 H         1 DAS         0.1377 
     53 H22         5.3146    4.2423   15.5013 H         1 DAS         0.1386 
     54 H23         6.9589    2.9171   14.2280 H         1 DAS         0.1482 
     55 H24         1.5095    4.4632   12.9293 H         1 DAS         0.0551 
     56 H25         1.5482    2.9089   12.0298 H         1 DAS         0.0551 
     57 H26         2.1590    4.4102   11.2554 H         1 DAS         0.0551 
     58 H58         4.0775    1.4615    4.3140 H         1 DAS         0.0000 
     59 H59         0.0271   -2.0389    1.8933 H         1 DAS         0.0000 
@<TRIPOS>BOND
     1    1    5 1    
     2    1    2 2    
     3    1   34 1    
     4    2    3 1    
     5    2   23 1    
     6    3    4 1    
     7    4    5 2    
     8    4    6 ar   
     9    6    7 2    
    10    6   58 1    
    11    7    8 ar   
    12    7   12 ar   
    13    8    9 ar   
    14    8   35 1    
    15    9   10 ar   
    16    9   14 1    
    17   10   11 ar   
    18   10   59 1    
    19   11   13 1    
    20   11   12 ar   
    21   13   36 1    
    22   13   37 1    
    23   13   38 1    
    24   14   19 1    
    25   14   15 1    
    26   15   16 1    
    27   15   39 1    
    28   15   40 1    
    29   16   17 1    
    30   16   41 1    
    31   16   42 1    
    32   17   18 1    
    33   17   20 1    
    34   18   19 1    
    35   18   43 1    
    36   18   44 1    
    37   19   45 1    
    38   19   46 1    
    39   20   21 1    
    40   20   47 1    
    41   20   48 1    
    42   21   22 1    
    43   21   49 1    
    44   21   50 1    
    45   22   51 1    
    46   23   24 1    
    47   23   25 2    
    48   25   26 1    
    49   26   31 ar   
    50   26   27 ar   
    51   27   28 ar   
    52   27   33 1    
    53   28   29 ar   
    54   28   52 1    
    55   29   30 ar   
    56   29   53 1    
    57   30   31 ar   
    58   30   54 1    
    59   31   32 1    
    60   33   55 1    
    61   33   56 1    
    62   33   57 1    
@<TRIPOS>SUBSTRUCTURE
     1 DAS         1 GROUP             0       ****    0 ROOT    
@<TRIPOS>MOLECULE
~{N}-(2-chloro-6-methyl-phenyl)-2-[[6-[4-(2-hydroxyethyl)piperazin-1-yl]-2-methyl-pyrimidin-4-yl]amino]thiazole-5-carboxamide
61   64    1
SMALL
USER_CHARGES


@<TRIPOS>ATOM
      1 C1          2.8912    1.0679    8.3232 C.cat     1 DAS         0.4038 
      2 C2          3.9723    1.9231    8.3673 C.2       1 DAS        -0.3015 
      3 S1          4.5696    2.1775    6.7799 S.3       1 DAS        -0.0613 
      4 C3          3.3449    1.1365    6.1786 C.cat     1 DAS         0.6645 
      5 N1          2.5297    0.6162    7.0690 N.pl3     1 DAS        -0.6461 
      6 N2          3.2682    0.8910    4.7931 N.pl3     1 DAS        -0.8342 
      7 C4          2.3957    0.1013    4.0050 C.ar      1 DAS         0.7028 
      8 C5          2.6090    0.0862    2.6417 C.ar      1 DAS        -0.4500 
      9 C6          1.7376   -0.6943    1.9097 C.ar      1 DAS         0.6921 
     10 N3          0.7328   -1.4099    2.4558 N.ar      1 DAS        -0.7653 
     11 C7          0.6283   -1.3128    3.7949 C.ar      1 DAS         0.6973 
     12 N4          1.4111   -0.5886    4.6174 N.ar      1 DAS        -0.7143 
     13 C8         -0.4711   -2.0900    4.4354 C.3       1 DAS        -0.1354 
     14 N5          1.9199   -0.7366    0.5229 N.pl3     1 DAS        -0.7676 
     15 C9          1.5399   -1.9651   -0.1857 C.3       1 DAS         0.2009 
     16 C10         2.2588   -2.0514   -1.5340 C.3       1 DAS         0.1680 
     17 N6          2.0338   -0.8381   -2.3295 N.4       1 DAS        -0.7428 
     18 C11         2.5418    0.3342   -1.6066 C.3       1 DAS         0.1680 
     19 C12         1.8331    0.5000   -0.2600 C.3       1 DAS         0.2009 
     20 C13         2.6797   -0.9547   -3.6364 C.3       1 DAS         0.1705 
     21 C14         1.8191   -1.7889   -4.5775 C.3       1 DAS         0.1287 
     22 O1          2.4671   -1.8876   -5.8394 O.3       1 DAS        -0.6048 
     23 C15         4.5938    2.5606    9.4788 C.2       1 DAS         0.7227 
     24 O2          5.5839    3.3227    9.3612 O.2       1 DAS        -0.5937 
     25 N7          4.0067    2.3209   10.7455 N.am      1 DAS        -0.4696 
     26 C16         4.3666    2.8310   12.0183 C.ar      1 DAS         0.0597 
     27 C17         3.4402    3.5814   12.7425 C.ar      1 DAS        -0.0507 
     28 C18         3.7814    4.0894   13.9960 C.ar      1 DAS        -0.1207 
     29 C19         5.0490    3.8469   14.5252 C.ar      1 DAS        -0.1288 
     30 C20         5.9753    3.0965   13.8010 C.ar      1 DAS        -0.1154 
     31 C21         5.6341    2.5886   12.5475 C.ar      1 DAS        -0.0124 
     32 Cl1         6.8146    1.6648   11.6875 Cl        1 DAS        -0.1012 
     33 C22         2.0740    3.8593   12.2037 C.3       1 DAS        -0.0583 
     34 H1          2.3237    0.7373    9.1834 H         1 DAS         0.0462 
     35 H3          3.3354    0.5938    2.1783 H         1 DAS         0.1532 
     36 H4         -1.0335   -2.6346    3.6626 H         1 DAS         0.0650 
     37 H5         -1.1470   -1.4017    4.9640 H         1 DAS         0.0650 
     38 H6         -0.0441   -2.8070    5.1519 H         1 DAS         0.0650 
     39 H7          0.4522   -1.9607   -0.3499 H         1 DAS         0.0518 
     40 H8          1.8139   -2.8330    0.4321 H         1 DAS         0.0518 
     41 H9          3.3398   -2.1676   -1.3663 H         1 DAS         0.0410 
     42 H10         1.8800   -2.9173   -2.0968 H         1 DAS         0.0410 
     43 H11         3.6199    0.2139   -1.4246 H         1 DAS         0.0410 
     44 H12         2.3702    1.2388   -2.2084 H         1 DAS         0.0410 
     45 H13         2.3078    1.3149    0.3063 H         1 DAS         0.0518 
     46 H14         0.7734    0.7407   -0.4305 H         1 DAS         0.0518 
     47 H15         2.8170    0.0477   -4.0683 H         1 DAS         0.0480 
     48 H16         3.6595   -1.4408   -3.5192 H         1 DAS         0.0480 
     49 H17         1.6811   -2.7945   -4.1536 H         1 DAS         0.0291 
     50 H18         0.8386   -1.3061   -4.7027 H         1 DAS         0.0291 
     51 H19         1.9971   -2.4549   -6.6562 H         1 DAS         0.4027 
     52 H20         3.1391    1.6501   10.8315 H         1 DAS         0.3239 
     53 H21         3.0672    4.6756   14.5682 H         1 DAS         0.1377 
     54 H22         5.3146    4.2423   15.5013 H         1 DAS         0.1386 
     55 H23         6.9589    2.9171   14.2280 H         1 DAS         0.1482 
     56 H24         1.5095    4.4632   12.9293 H         1 DAS         0.0551 
     57 H25         1.5482    2.9089   12.0298 H         1 DAS         0.0551 
     58 H26         2.1590    4.4102   11.2554 H         1 DAS         0.0551 
     59 H59         4.0775    1.4615    4.3140 H         1 DAS         0.0000 
     60 H60         1.6763   -0.0686    6.9559 H         1 DAS         0.0000 
     61 H61         0.9534   -0.7146   -2.4953 H         1 DAS         0.0000 
@<TRIPOS>BOND
     1    1    5 ar   
     2    1    2 2    
     3    1   34 1    
     4    2    3 1    
     5    2   23 1    
     6    3    4 1    
     7    4    5 ar   
     8    4    6 ar   
     9    5   60 1    
    10    6    7 1    
    11    6   59 1    
    12    7   12 ar   
    13    7    8 ar   
    14    8   35 1    
    15    8    9 ar   
    16    9   14 1    
    17    9   10 ar   
    18   10   11 ar   
    19   11   13 1    
    20   11   12 ar   
    21   13   36 1    
    22   13   37 1    
    23   13   38 1    
    24   14   19 1    
    25   14   15 1    
    26   15   16 1    
    27   15   39 1    
    28   15   40 1    
    29   16   17 1    
    30   16   41 1    
    31   16   42 1    
    32   17   18 1    
    33   17   20 1    
    34   17   61 1    
    35   18   19 1    
    36   18   43 1    
    37   18   44 1    
    38   19   45 1    
    39   19   46 1    
    40   20   21 1    
    41   20   47 1    
    42   20   48 1    
    43   21   22 1    
    44   21   49 1    
    45   21   50 1    
    46   22   51 1    
    47   23   24 2    
    48   23   25 am   BACKBONE|DICT|INTERRES
    49   25   26 1    
    50   25   52 1    
    51   26   31 ar   
    52   26   27 ar   
    53   27   28 ar   
    54   27   33 1    
    55   28   29 ar   
    56   28   53 1    
    57   29   30 ar   
    58   29   54 1    
    59   30   31 ar   
    60   30   55 1    
    61   31   32 1    
    62   33   56 1    
    63   33   57 1    
    64   33   58 1    
@<TRIPOS>SUBSTRUCTURE
     1 DAS         1 GROUP             0       ****    0 ROOT    
@<TRIPOS>MOLECULE
~{N}-(2-chloro-6-methyl-phenyl)-2-[[6-[4-(2-hydroxyethyl)piperazin-1-yl]-2-methyl-pyrimidin-4-yl]amino]thiazole-5-carboxamide
59   62    1
SMALL
USER_CHARGES


@<TRIPOS>ATOM
      1 C1          2.8912    1.0679    8.3232 C.2       1 DAS         0.4038 
      2 C2          3.9723    1.9231    8.3673 C.2       1 DAS        -0.3015 
      3 S1          4.5696    2.1775    6.7799 S.3       1 DAS        -0.0613 
      4 C3          3.3449    1.1365    6.1786 C.2       1 DAS         0.6645 
      5 N1          2.5297    0.6162    7.0690 N.2       1 DAS        -0.6461 
      6 N2          3.2682    0.8910    4.7931 N.pl3     1 DAS        -0.8342 
      7 C4          2.3957    0.1013    4.0050 C.ar      1 DAS         0.7028 
      8 C5          2.6090    0.0862    2.6417 C.ar      1 DAS        -0.4500 
      9 C6          1.7376   -0.6943    1.9097 C.ar      1 DAS         0.6921 
     10 N3          0.7328   -1.4099    2.4558 N.ar      1 DAS        -0.7653 
     11 C7          0.6283   -1.3128    3.7949 C.ar      1 DAS         0.6973 
     12 N4          1.4111   -0.5886    4.6174 N.pl3     1 DAS        -0.7143 
     13 C8         -0.4711   -2.0900    4.4354 C.3       1 DAS        -0.1354 
     14 N5          1.9199   -0.7366    0.5229 N.pl3     1 DAS        -0.7676 
     15 C9          1.5399   -1.9651   -0.1857 C.3       1 DAS         0.2009 
     16 C10         2.2588   -2.0514   -1.5340 C.3       1 DAS         0.1680 
     17 N6          2.0338   -0.8381   -2.3295 N.3       1 DAS        -0.7428 
     18 C11         2.5418    0.3342   -1.6066 C.3       1 DAS         0.1680 
     19 C12         1.8331    0.5000   -0.2600 C.3       1 DAS         0.2009 
     20 C13         2.6797   -0.9547   -3.6364 C.3       1 DAS         0.1705 
     21 C14         1.8191   -1.7889   -4.5775 C.3       1 DAS         0.1287 
     22 O1          2.4671   -1.8876   -5.8394 O.3       1 DAS        -0.6048 
     23 C15         4.5938    2.5606    9.4788 C.2       1 DAS         0.7227 
     24 O2          5.5839    3.3227    9.3612 O.co2     1 DAS        -0.5937 
     25 N7          4.0067    2.3209   10.7455 N.2       1 DAS        -0.4696 
     26 C16         4.3666    2.8310   12.0183 C.ar      1 DAS         0.0597 
     27 C17         3.4402    3.5814   12.7425 C.ar      1 DAS        -0.0507 
     28 C18         3.7814    4.0894   13.9960 C.ar      1 DAS        -0.1207 
     29 C19         5.0490    3.8469   14.5252 C.ar      1 DAS        -0.1288 
     30 C20         5.9753    3.0965   13.8010 C.ar      1 DAS        -0.1154 
     31 C21         5.6341    2.5886   12.5475 C.ar      1 DAS        -0.0124 
     32 Cl1         6.8146    1.6648   11.6875 Cl        1 DAS        -0.1012 
     33 C22         2.0740    3.8593   12.2037 C.3       1 DAS        -0.0583 
     34 H1          2.3237    0.7373    9.1834 H         1 DAS         0.0462 
     35 H3          3.3354    0.5938    2.1783 H         1 DAS         0.1532 
     36 H4         -1.0335   -2.6346    3.6626 H         1 DAS         0.0650 
     37 H5         -1.1470   -1.4017    4.9640 H         1 DAS         0.0650 
     38 H6         -0.0441   -2.8070    5.1519 H         1 DAS         0.0650 
     39 H7          0.4522   -1.9607   -0.3499 H         1 DAS         0.0518 
     40 H8          1.8139   -2.8330    0.4321 H         1 DAS         0.0518 
     41 H9          3.3398   -2.1676   -1.3663 H         1 DAS         0.0410 
     42 H10         1.8800   -2.9173   -2.0968 H         1 DAS         0.0410 
     43 H11         3.6199    0.2139   -1.4246 H         1 DAS         0.0410 
     44 H12         2.3702    1.2388   -2.2084 H         1 DAS         0.0410 
     45 H13         2.3078    1.3149    0.3063 H         1 DAS         0.0518 
     46 H14         0.7734    0.7407   -0.4305 H         1 DAS         0.0518 
     47 H15         2.8170    0.0477   -4.0683 H         1 DAS         0.0480 
     48 H16         3.6595   -1.4408   -3.5192 H         1 DAS         0.0480 
     49 H17         1.6811   -2.7945   -4.1536 H         1 DAS         0.0291 
     50 H18         0.8386   -1.3061   -4.7027 H         1 DAS         0.0291 
     51 H19         1.9971   -2.4549   -6.6562 H         1 DAS         0.4027 
     52 H21         3.0672    4.6756   14.5682 H         1 DAS         0.1377 
     53 H22         5.3146    4.2423   15.5013 H         1 DAS         0.1386 
     54 H23         6.9589    2.9171   14.2280 H         1 DAS         0.1482 
     55 H24         1.5095    4.4632   12.9293 H         1 DAS         0.0551 
     56 H25         1.5482    2.9089   12.0298 H         1 DAS         0.0551 
     57 H26         2.1590    4.4102   11.2554 H         1 DAS         0.0551 
     58 H58         4.0775    1.4615    4.3140 H         1 DAS         0.0000 
     59 H59         1.2216   -0.5917    5.7010 H         1 DAS         0.0000 
@<TRIPOS>BOND
     1    1    5 1    
     2    1    2 2    
     3    1   34 1    
     4    2    3 1    
     5    2   23 1    
     6    3    4 1    
     7    4    5 2    
     8    4    6 1    
     9    6    7 1    
    10    6   58 1    
    11    7   12 ar   
    12    7    8 ar   
    13    8   35 1    
    14    8    9 ar   
    15    9   14 1    
    16    9   10 ar   
    17   10   11 ar   
    18   11   13 1    
    19   11   12 ar   
    20   12   59 1    
    21   13   36 1    
    22   13   37 1    
    23   13   38 1    
    24   14   19 1    
    25   14   15 1    
    26   15   16 1    
    27   15   39 1    
    28   15   40 1    
    29   16   17 1    
    30   16   41 1    
    31   16   42 1    
    32   17   18 1    
    33   17   20 1    
    34   18   19 1    
    35   18   43 1    
    36   18   44 1    
    37   19   45 1    
    38   19   46 1    
    39   20   21 1    
    40   20   47 1    
    41   20   48 1    
    42   21   22 1    
    43   21   49 1    
    44   21   50 1    
    45   22   51 1    
    46   23   24 1    
    47   23   25 2    
    48   25   26 1    
    49   26   31 ar   
    50   26   27 ar   
    51   27   28 ar   
    52   27   33 1    
    53   28   29 ar   
    54   28   52 1    
    55   29   30 ar   
    56   29   53 1    
    57   30   31 ar   
    58   30   54 1    
    59   31   32 1    
    60   33   55 1    
    61   33   56 1    
    62   33   57 1    
@<TRIPOS>SUBSTRUCTURE
     1 DAS         1 GROUP             0       ****    0 ROOT    
@<TRIPOS>MOLECULE
~{N}-(2-chloro-6-methyl-phenyl)-2-[[6-[4-(2-hydroxyethyl)piperazin-1-yl]-2-methyl-pyrimidin-4-yl]amino]thiazole-5-carboxamide
59   62    1
SMALL
USER_CHARGES


@<TRIPOS>ATOM
      1 C1          2.8912    1.0679    8.3232 C.2       1 DAS         0.4038 
      2 C2          3.9723    1.9231    8.3673 C.2       1 DAS        -0.3015 
      3 S1          4.5696    2.1775    6.7799 S.3       1 DAS        -0.0613 
      4 C3          3.3449    1.1365    6.1786 C.2       1 DAS         0.6645 
      5 N1          2.5297    0.6162    7.0690 N.2       1 DAS        -0.6461 
      6 N2          3.2682    0.8910    4.7931 N.pl3     1 DAS        -0.8342 
      7 C4          2.3957    0.1013    4.0050 C.ar      1 DAS         0.7028 
      8 C5          2.6090    0.0862    2.6417 C.ar      1 DAS        -0.4500 
      9 C6          1.7376   -0.6943    1.9097 C.ar      1 DAS         0.6921 
     10 N3          0.7328   -1.4099    2.4558 N.pl3     1 DAS        -0.7653 
     11 C7          0.6283   -1.3128    3.7949 C.ar      1 DAS         0.6973 
     12 N4          1.4111   -0.5886    4.6174 N.ar      1 DAS        -0.7143 
     13 C8         -0.4711   -2.0900    4.4354 C.3       1 DAS        -0.1354 
     14 N5          1.9199   -0.7366    0.5229 N.pl3     1 DAS        -0.7676 
     15 C9          1.5399   -1.9651   -0.1857 C.3       1 DAS         0.2009 
     16 C10         2.2588   -2.0514   -1.5340 C.3       1 DAS         0.1680 
     17 N6          2.0338   -0.8381   -2.3295 N.3       1 DAS        -0.7428 
     18 C11         2.5418    0.3342   -1.6066 C.3       1 DAS         0.1680 
     19 C12         1.8331    0.5000   -0.2600 C.3       1 DAS         0.2009 
     20 C13         2.6797   -0.9547   -3.6364 C.3       1 DAS         0.1705 
     21 C14         1.8191   -1.7889   -4.5775 C.3       1 DAS         0.1287 
     22 O1          2.4671   -1.8876   -5.8394 O.3       1 DAS        -0.6048 
     23 C15         4.5938    2.5606    9.4788 C.2       1 DAS         0.7227 
     24 O2          5.5839    3.3227    9.3612 O.co2     1 DAS        -0.5937 
     25 N7          4.0067    2.3209   10.7455 N.2       1 DAS        -0.4696 
     26 C16         4.3666    2.8310   12.0183 C.ar      1 DAS         0.0597 
     27 C17         3.4402    3.5814   12.7425 C.ar      1 DAS        -0.0507 
     28 C18         3.7814    4.0894   13.9960 C.ar      1 DAS        -0.1207 
     29 C19         5.0490    3.8469   14.5252 C.ar      1 DAS        -0.1288 
     30 C20         5.9753    3.0965   13.8010 C.ar      1 DAS        -0.1154 
     31 C21         5.6341    2.5886   12.5475 C.ar      1 DAS        -0.0124 
     32 Cl1         6.8146    1.6648   11.6875 Cl        1 DAS        -0.1012 
     33 C22         2.0740    3.8593   12.2037 C.3       1 DAS        -0.0583 
     34 H1          2.3237    0.7373    9.1834 H         1 DAS         0.0462 
     35 H3          3.3354    0.5938    2.1783 H         1 DAS         0.1532 
     36 H4         -1.0335   -2.6346    3.6626 H         1 DAS         0.0650 
     37 H5         -1.1470   -1.4017    4.9640 H         1 DAS         0.0650 
     38 H6         -0.0441   -2.8070    5.1519 H         1 DAS         0.0650 
     39 H7          0.4522   -1.9607   -0.3499 H         1 DAS         0.0518 
     40 H8          1.8139   -2.8330    0.4321 H         1 DAS         0.0518 
     41 H9          3.3398   -2.1676   -1.3663 H         1 DAS         0.0410 
     42 H10         1.8800   -2.9173   -2.0968 H         1 DAS         0.0410 
     43 H11         3.6199    0.2139   -1.4246 H         1 DAS         0.0410 
     44 H12         2.3702    1.2388   -2.2084 H         1 DAS         0.0410 
     45 H13         2.3078    1.3149    0.3063 H         1 DAS         0.0518 
     46 H14         0.7734    0.7407   -0.4305 H         1 DAS         0.0518 
     47 H15         2.8170    0.0477   -4.0683 H         1 DAS         0.0480 
     48 H16         3.6595   -1.4408   -3.5192 H         1 DAS         0.0480 
     49 H17         1.6811   -2.7945   -4.1536 H         1 DAS         0.0291 
     50 H18         0.8386   -1.3061   -4.7027 H         1 DAS         0.0291 
     51 H19         1.9971   -2.4549   -6.6562 H         1 DAS         0.4027 
     52 H21         3.0672    4.6756   14.5682 H         1 DAS         0.1377 
     53 H22         5.3146    4.2423   15.5013 H         1 DAS         0.1386 
     54 H23         6.9589    2.9171   14.2280 H         1 DAS         0.1482 
     55 H24         1.5095    4.4632   12.9293 H         1 DAS         0.0551 
     56 H25         1.5482    2.9089   12.0298 H         1 DAS         0.0551 
     57 H26         2.1590    4.4102   11.2554 H         1 DAS         0.0551 
     58 H58         4.0775    1.4615    4.3140 H         1 DAS         0.0000 
     59 H59         0.0743   -2.0126    1.8130 H         1 DAS         0.0000 
@<TRIPOS>BOND
     1    1    5 1    
     2    1    2 2    
     3    1   34 1    
     4    2    3 1    
     5    2   23 1    
     6    3    4 1    
     7    4    5 2    
     8    4    6 1    
     9    6    7 1    
    10    6   58 1    
    11    7   12 ar   
    12    7    8 ar   
    13    8   35 1    
    14    8    9 ar   
    15    9   14 1    
    16    9   10 ar   
    17   10   11 ar   
    18   10   59 1    
    19   11   13 1    
    20   11   12 ar   
    21   13   36 1    
    22   13   37 1    
    23   13   38 1    
    24   14   19 1    
    25   14   15 1    
    26   15   16 1    
    27   15   39 1    
    28   15   40 1    
    29   16   17 1    
    30   16   41 1    
    31   16   42 1    
    32   17   18 1    
    33   17   20 1    
    34   18   19 1    
    35   18   43 1    
    36   18   44 1    
    37   19   45 1    
    38   19   46 1    
    39   20   21 1    
    40   20   47 1    
    41   20   48 1    
    42   21   22 1    
    43   21   49 1    
    44   21   50 1    
    45   22   51 1    
    46   23   24 1    
    47   23   25 2    
    48   25   26 1    
    49   26   31 ar   
    50   26   27 ar   
    51   27   28 ar   
    52   27   33 1    
    53   28   29 ar   
    54   28   52 1    
    55   29   30 ar   
    56   29   53 1    
    57   30   31 ar   
    58   30   54 1    
    59   31   32 1    
    60   33   55 1    
    61   33   56 1    
    62   33   57 1    
@<TRIPOS>SUBSTRUCTURE
     1 DAS         1 GROUP             0       ****    0 ROOT    
@<TRIPOS>MOLECULE
~{N}-(2-chloro-6-methyl-phenyl)-2-[[6-[4-(2-hydroxyethyl)piperazin-1-yl]-2-methyl-pyrimidin-4-yl]amino]thiazole-5-carboxamide
60   63    1
SMALL
USER_CHARGES


@<TRIPOS>ATOM
      1 C1          2.8912    1.0679    8.3232 C.cat     1 DAS         0.4038 
      2 C2          3.9723    1.9231    8.3673 C.2       1 DAS        -0.3015 
      3 S1          4.5696    2.1775    6.7799 S.3       1 DAS        -0.0613 
      4 C3          3.3449    1.1365    6.1786 C.cat     1 DAS         0.6645 
      5 N1          2.5297    0.6162    7.0690 N.pl3     1 DAS        -0.6461 
      6 N2          3.2682    0.8910    4.7931 N.pl3     1 DAS        -0.8342 
      7 C4          2.3957    0.1013    4.0050 C.ar      1 DAS         0.7028 
      8 C5          2.6090    0.0862    2.6417 C.ar      1 DAS        -0.4500 
      9 C6          1.7376   -0.6943    1.9097 C.ar      1 DAS         0.6921 
     10 N3          0.7328   -1.4099    2.4558 N.ar      1 DAS        -0.7653 
     11 C7          0.6283   -1.3128    3.7949 C.ar      1 DAS         0.6973 
     12 N4          1.4111   -0.5886    4.6174 N.ar      1 DAS        -0.7143 
     13 C8         -0.4711   -2.0900    4.4354 C.3       1 DAS        -0.1354 
     14 N5          1.9199   -0.7366    0.5229 N.pl3     1 DAS        -0.7676 
     15 C9          1.5399   -1.9651   -0.1857 C.3       1 DAS         0.2009 
     16 C10         2.2588   -2.0514   -1.5340 C.3       1 DAS         0.1680 
     17 N6          2.0338   -0.8381   -2.3295 N.3       1 DAS        -0.7428 
     18 C11         2.5418    0.3342   -1.6066 C.3       1 DAS         0.1680 
     19 C12         1.8331    0.5000   -0.2600 C.3       1 DAS         0.2009 
     20 C13         2.6797   -0.9547   -3.6364 C.3       1 DAS         0.1705 
     21 C14         1.8191   -1.7889   -4.5775 C.3       1 DAS         0.1287 
     22 O1          2.4671   -1.8876   -5.8394 O.3       1 DAS        -0.6048 
     23 C15         4.5938    2.5606    9.4788 C.2       1 DAS         0.7227 
     24 O2          5.5839    3.3227    9.3612 O.2       1 DAS        -0.5937 
     25 N7          4.0067    2.3209   10.7455 N.am      1 DAS        -0.4696 
     26 C16         4.3666    2.8310   12.0183 C.ar      1 DAS         0.0597 
     27 C17         3.4402    3.5814   12.7425 C.ar      1 DAS        -0.0507 
     28 C18         3.7814    4.0894   13.9960 C.ar      1 DAS        -0.1207 
     29 C19         5.0490    3.8469   14.5252 C.ar      1 DAS        -0.1288 
     30 C20         5.9753    3.0965   13.8010 C.ar      1 DAS        -0.1154 
     31 C21         5.6341    2.5886   12.5475 C.ar      1 DAS        -0.0124 
     32 Cl1         6.8146    1.6648   11.6875 Cl        1 DAS        -0.1012 
     33 C22         2.0740    3.8593   12.2037 C.3       1 DAS        -0.0583 
     34 H1          2.3237    0.7373    9.1834 H         1 DAS         0.0462 
     35 H3          3.3354    0.5938    2.1783 H         1 DAS         0.1532 
     36 H4         -1.0335   -2.6346    3.6626 H         1 DAS         0.0650 
     37 H5         -1.1470   -1.4017    4.9640 H         1 DAS         0.0650 
     38 H6         -0.0441   -2.8070    5.1519 H         1 DAS         0.0650 
     39 H7          0.4522   -1.9607   -0.3499 H         1 DAS         0.0518 
     40 H8          1.8139   -2.8330    0.4321 H         1 DAS         0.0518 
     41 H9          3.3398   -2.1676   -1.3663 H         1 DAS         0.0410 
     42 H10         1.8800   -2.9173   -2.0968 H         1 DAS         0.0410 
     43 H11         3.6199    0.2139   -1.4246 H         1 DAS         0.0410 
     44 H12         2.3702    1.2388   -2.2084 H         1 DAS         0.0410 
     45 H13         2.3078    1.3149    0.3063 H         1 DAS         0.0518 
     46 H14         0.7734    0.7407   -0.4305 H         1 DAS         0.0518 
     47 H15         2.8170    0.0477   -4.0683 H         1 DAS         0.0480 
     48 H16         3.6595   -1.4408   -3.5192 H         1 DAS         0.0480 
     49 H17         1.6811   -2.7945   -4.1536 H         1 DAS         0.0291 
     50 H18         0.8386   -1.3061   -4.7027 H         1 DAS         0.0291 
     51 H19         1.9971   -2.4549   -6.6562 H         1 DAS         0.4027 
     52 H20         3.1391    1.6501   10.8315 H         1 DAS         0.3239 
     53 H21         3.0672    4.6756   14.5682 H         1 DAS         0.1377 
     54 H22         5.3146    4.2423   15.5013 H         1 DAS         0.1386 
     55 H23         6.9589    2.9171   14.2280 H         1 DAS         0.1482 
     56 H24         1.5095    4.4632   12.9293 H         1 DAS         0.0551 
     57 H25         1.5482    2.9089   12.0298 H         1 DAS         0.0551 
     58 H26         2.1590    4.4102   11.2554 H         1 DAS         0.0551 
     59 H59         4.0775    1.4615    4.3140 H         1 DAS         0.0000 
     60 H60         1.6763   -0.0686    6.9559 H         1 DAS         0.0000 
@<TRIPOS>BOND
     1    1    5 ar   
     2    1    2 2    
     3    1   34 1    
     4    2    3 1    
     5    2   23 1    
     6    3    4 1    
     7    4    5 ar   
     8    4    6 ar   
     9    5   60 1    
    10    6    7 1    
    11    6   59 1    
    12    7   12 ar   
    13    7    8 ar   
    14    8   35 1    
    15    8    9 ar   
    16    9   14 1    
    17    9   10 ar   
    18   10   11 ar   
    19   11   13 1    
    20   11   12 ar   
    21   13   36 1    
    22   13   37 1    
    23   13   38 1    
    24   14   19 1    
    25   14   15 1    
    26   15   16 1    
    27   15   39 1    
    28   15   40 1    
    29   16   17 1    
    30   16   41 1    
    31   16   42 1    
    32   17   18 1    
    33   17   20 1    
    34   18   19 1    
    35   18   43 1    
    36   18   44 1    
    37   19   45 1    
    38   19   46 1    
    39   20   21 1    
    40   20   47 1    
    41   20   48 1    
    42   21   22 1    
    43   21   49 1    
    44   21   50 1    
    45   22   51 1    
    46   23   24 2    
    47   23   25 am   BACKBONE|DICT|INTERRES
    48   25   26 1    
    49   25   52 1    
    50   26   31 ar   
    51   26   27 ar   
    52   27   28 ar   
    53   27   33 1    
    54   28   29 ar   
    55   28   53 1    
    56   29   30 ar   
    57   29   54 1    
    58   30   31 ar   
    59   30   55 1    
    60   31   32 1    
    61   33   56 1    
    62   33   57 1    
    63   33   58 1    
@<TRIPOS>SUBSTRUCTURE
     1 DAS         1 GROUP             0       ****    0 ROOT    
@<TRIPOS>MOLECULE
~{N}-(2-chloro-6-methyl-phenyl)-2-[[6-[4-(2-hydroxyethyl)piperazin-1-yl]-2-methyl-pyrimidin-4-yl]amino]thiazole-5-carboxamide
61   64    1
SMALL
USER_CHARGES


@<TRIPOS>ATOM
      1 C1          2.8912    1.0679    8.3232 C.cat     1 DAS         0.4038 
      2 C2          3.9723    1.9231    8.3673 C.2       1 DAS        -0.3015 
      3 S1          4.5696    2.1775    6.7799 S.3       1 DAS        -0.0613 
      4 C3          3.3449    1.1365    6.1786 C.cat     1 DAS         0.6645 
      5 N1          2.5297    0.6162    7.0690 N.pl3     1 DAS        -0.6461 
      6 N2          3.2682    0.8910    4.7931 N.pl3     1 DAS        -0.8342 
      7 C4          2.3957    0.1013    4.0050 C.ar      1 DAS         0.7028 
      8 C5          2.6090    0.0862    2.6417 C.ar      1 DAS        -0.4500 
      9 C6          1.7375   -0.6941    1.9097 C.ar      1 DAS         0.6921 
     10 N3          0.7328   -1.4099    2.4558 N.pl3     1 DAS        -0.7653 
     11 C7          0.6285   -1.3130    3.7949 C.ar      1 DAS         0.6973 
     12 N4          1.4112   -0.5888    4.6174 N.2       1 DAS        -0.7143 
     13 C8         -0.4708   -2.0904    4.4354 C.3       1 DAS        -0.1354 
     14 N5          1.9190   -0.7355    0.5227 N.pl3     1 DAS        -0.7676 
     15 C9          1.5392   -1.9638   -0.1864 C.3       1 DAS         0.2009 
     16 C10         2.2575   -2.0489   -1.5351 C.3       1 DAS         0.1680 
     17 N6          2.0315   -0.8353   -2.3298 N.3       1 DAS        -0.7428 
     18 C11         2.5393    0.3368   -1.6064 C.3       1 DAS         0.1680 
     19 C12         1.8312    0.5015   -0.2594 C.3       1 DAS         0.2009 
     20 C13         2.6768   -0.9507   -3.6371 C.3       1 DAS         0.1705 
     21 C14         1.8160   -1.7849   -4.5783 C.3       1 DAS         0.1287 
     22 O1          2.4635   -1.8825   -5.8405 O.3       1 DAS        -0.6048 
     23 C15         4.5938    2.5606    9.4788 C.2       1 DAS         0.7227 
     24 O2          5.5839    3.3227    9.3612 O.2       1 DAS        -0.5937 
     25 N7          4.0067    2.3209   10.7455 N.am      1 DAS        -0.4696 
     26 C16         4.3666    2.8310   12.0183 C.ar      1 DAS         0.0597 
     27 C17         3.4402    3.5814   12.7425 C.ar      1 DAS        -0.0507 
     28 C18         3.7814    4.0894   13.9960 C.ar      1 DAS        -0.1207 
     29 C19         5.0490    3.8469   14.5252 C.ar      1 DAS        -0.1288 
     30 C20         5.9753    3.0965   13.8010 C.ar      1 DAS        -0.1154 
     31 C21         5.6341    2.5886   12.5475 C.ar      1 DAS        -0.0124 
     32 Cl1         6.8146    1.6648   11.6875 Cl        1 DAS        -0.1012 
     33 C22         2.0740    3.8593   12.2037 C.3       1 DAS        -0.0583 
     34 H1          2.4214    0.8120    9.1681 H         1 DAS         0.0462 
     35 H3          3.3356    0.5936    2.1784 H         1 DAS         0.1532 
     36 H4         -0.4491   -1.9282    5.5232 H         1 DAS         0.0650 
     37 H5         -0.3356   -3.1609    4.2216 H         1 DAS         0.0650 
     38 H6         -1.4387   -1.7557    4.0340 H         1 DAS         0.0650 
     39 H7          0.4515   -1.9598   -0.3500 H         1 DAS         0.0518 
     40 H8          1.8140   -2.8319    0.4308 H         1 DAS         0.0518 
     41 H9          3.3386   -2.1646   -1.3680 H         1 DAS         0.0410 
     42 H10         1.8788   -2.9146   -2.0982 H         1 DAS         0.0410 
     43 H11         3.6176    0.2170   -1.4251 H         1 DAS         0.0410 
     44 H12         2.3669    1.2418   -2.2076 H         1 DAS         0.0410 
     45 H13         2.3058    1.3163    0.3071 H         1 DAS         0.0518 
     46 H14         0.7713    0.7418   -0.4292 H         1 DAS         0.0518 
     47 H15         2.8134    0.0519   -4.0684 H         1 DAS         0.0480 
     48 H16         3.6568   -1.4364   -3.5207 H         1 DAS         0.0480 
     49 H17         1.6788   -2.7908   -4.1549 H         1 DAS         0.0291 
     50 H18         0.8353   -1.3025   -4.7026 H         1 DAS         0.0291 
     51 H19         1.9933   -2.4496   -6.6574 H         1 DAS         0.4027 
     52 H20         3.1391    1.6501   10.8315 H         1 DAS         0.3239 
     53 H21         3.0672    4.6756   14.5682 H         1 DAS         0.1377 
     54 H22         5.3146    4.2423   15.5013 H         1 DAS         0.1386 
     55 H23         6.9589    2.9171   14.2280 H         1 DAS         0.1482 
     56 H24         1.5095    4.4632   12.9293 H         1 DAS         0.0551 
     57 H25         1.5482    2.9089   12.0298 H         1 DAS         0.0551 
     58 H26         2.1590    4.4102   11.2554 H         1 DAS         0.0551 
     59 H59         4.0775    1.4615    4.3140 H         1 DAS         0.0000 
     60 H60         1.6763   -0.0686    6.9559 H         1 DAS         0.0000 
     61 H61         0.0271   -2.0389    1.8933 H         1 DAS         0.0000 
@<TRIPOS>BOND
     1    1    5 ar   
     2    1    2 2    
     3    1   34 1    
     4    2    3 1    
     5    2   23 1    
     6    3    4 1    
     7    4    5 ar   
     8    4    6 ar   
     9    5   60 1    
    10    6    7 2    
    11    6   59 1    
    12    7    8 ar   
    13    7   12 ar   
    14    8    9 ar   
    15    8   35 1    
    16    9   10 ar   
    17    9   14 1    
    18   10   11 ar   
    19   10   61 1    
    20   11   13 1    
    21   11   12 ar   
    22   13   36 1    
    23   13   37 1    
    24   13   38 1    
    25   14   19 1    
    26   14   15 1    
    27   15   16 1    
    28   15   39 1    
    29   15   40 1    
    30   16   17 1    
    31   16   41 1    
    32   16   42 1    
    33   17   18 1    
    34   17   20 1    
    35   18   19 1    
    36   18   43 1    
    37   18   44 1    
    38   19   45 1    
    39   19   46 1    
    40   20   21 1    
    41   20   47 1    
    42   20   48 1    
    43   21   22 1    
    44   21   49 1    
    45   21   50 1    
    46   22   51 1    
    47   23   24 2    
    48   23   25 am   BACKBONE|DICT|INTERRES
    49   25   26 1    
    50   25   52 1    
    51   26   31 ar   
    52   26   27 ar   
    53   27   28 ar   
    54   27   33 1    
    55   28   29 ar   
    56   28   53 1    
    57   29   30 ar   
    58   29   54 1    
    59   30   31 ar   
    60   30   55 1    
    61   31   32 1    
    62   33   56 1    
    63   33   57 1    
    64   33   58 1    
@<TRIPOS>SUBSTRUCTURE
     1 DAS         1 GROUP             0       ****    0 ROOT    
@<TRIPOS>MOLECULE
~{N}-(2-chloro-6-methyl-phenyl)-2-[[6-[4-(2-hydroxyethyl)piperazin-1-yl]-2-methyl-pyrimidin-4-yl]amino]thiazole-5-carboxamide
61   64    1
SMALL
USER_CHARGES


@<TRIPOS>ATOM
      1 C1          5.9008    2.7554    3.3004 C.cat     1 DAS         0.4038 
      2 C2          6.2579    3.2019    4.5555 C.2       1 DAS        -0.3015 
      3 S1          5.2005    2.5310    5.7272 S.3       1 DAS        -0.0613 
      4 C3          4.3683    1.7104    4.4705 C.cat     1 DAS         0.6645 
      5 N1          4.8177    1.8998    3.2498 N.pl3     1 DAS        -0.6461 
      6 N2          3.2682    0.8910    4.7931 N.pl3     1 DAS        -0.8342 
      7 C4          2.3957    0.1013    4.0050 C.ar      1 DAS         0.7028 
      8 C5          2.6090    0.0862    2.6417 C.ar      1 DAS        -0.4500 
      9 C6          1.7375   -0.6941    1.9097 C.ar      1 DAS         0.6921 
     10 N3          0.7328   -1.4099    2.4558 N.pl3     1 DAS        -0.7653 
     11 C7          0.6285   -1.3130    3.7949 C.ar      1 DAS         0.6973 
     12 N4          1.4112   -0.5888    4.6174 N.2       1 DAS        -0.7143 
     13 C8         -0.4708   -2.0904    4.4354 C.3       1 DAS        -0.1354 
     14 N5          1.9190   -0.7355    0.5227 N.pl3     1 DAS        -0.7676 
     15 C9          1.5392   -1.9638   -0.1864 C.3       1 DAS         0.2009 
     16 C10         2.2575   -2.0489   -1.5351 C.3       1 DAS         0.1680 
     17 N6          2.0315   -0.8353   -2.3298 N.3       1 DAS        -0.7428 
     18 C11         2.5393    0.3368   -1.6064 C.3       1 DAS         0.1680 
     19 C12         1.8312    0.5015   -0.2594 C.3       1 DAS         0.2009 
     20 C13         2.6768   -0.9507   -3.6371 C.3       1 DAS         0.1705 
     21 C14         1.8160   -1.7849   -4.5783 C.3       1 DAS         0.1287 
     22 O1          2.4635   -1.8825   -5.8405 O.3       1 DAS        -0.6048 
     23 C15         7.3082    4.0774    4.9540 C.2       1 DAS         0.7227 
     24 O2          7.5125    4.3963    6.1504 O.2       1 DAS        -0.5937 
     25 N7          8.1534    4.5507    3.9204 N.am      1 DAS        -0.4696 
     26 C16         9.2898    5.3947    3.9991 C.ar      1 DAS         0.0597 
     27 C17        10.5250    4.9239    3.5539 C.ar      1 DAS        -0.0507 
     28 C18        11.6511    5.7438    3.6257 C.ar      1 DAS        -0.1207 
     29 C19        11.5420    7.0347    4.1429 C.ar      1 DAS        -0.1288 
     30 C20        10.3067    7.5056    4.5881 C.ar      1 DAS        -0.1154 
     31 C21         9.1806    6.6855    4.5162 C.ar      1 DAS        -0.0124 
     32 Cl1         7.6720    7.3123    5.0798 Cl        1 DAS        -0.1012 
     33 C22        10.6757    3.5459    2.9948 C.3       1 DAS        -0.0583 
     34 H1          6.4175    3.0537    2.4979 H         1 DAS         0.0462 
     35 H3          3.3356    0.5936    2.1784 H         1 DAS         0.1532 
     36 H4         -0.4491   -1.9282    5.5232 H         1 DAS         0.0650 
     37 H5         -0.3356   -3.1609    4.2216 H         1 DAS         0.0650 
     38 H6         -1.4387   -1.7557    4.0340 H         1 DAS         0.0650 
     39 H7          0.4515   -1.9598   -0.3500 H         1 DAS         0.0518 
     40 H8          1.8140   -2.8319    0.4308 H         1 DAS         0.0518 
     41 H9          3.3386   -2.1646   -1.3680 H         1 DAS         0.0410 
     42 H10         1.8788   -2.9146   -2.0982 H         1 DAS         0.0410 
     43 H11         3.6176    0.2170   -1.4251 H         1 DAS         0.0410 
     44 H12         2.3669    1.2418   -2.2076 H         1 DAS         0.0410 
     45 H13         2.3058    1.3163    0.3071 H         1 DAS         0.0518 
     46 H14         0.7713    0.7418   -0.4292 H         1 DAS         0.0518 
     47 H15         2.8134    0.0519   -4.0684 H         1 DAS         0.0480 
     48 H16         3.6568   -1.4364   -3.5207 H         1 DAS         0.0480 
     49 H17         1.6788   -2.7908   -4.1549 H         1 DAS         0.0291 
     50 H18         0.8353   -1.3025   -4.7026 H         1 DAS         0.0291 
     51 H19         1.9933   -2.4496   -6.6574 H         1 DAS         0.4027 
     52 H20         7.9607    4.2618    2.8767 H         1 DAS         0.3239 
     53 H21        12.6182    5.3865    3.2820 H         1 DAS         0.1377 
     54 H22        12.4187    7.6732    4.1987 H         1 DAS         0.1386 
     55 H23        10.2392    8.5140    4.9885 H         1 DAS         0.1482 
     56 H24        11.7241    3.3800    2.7063 H         1 DAS         0.0551 
     57 H25        10.0303    3.4363    2.1108 H         1 DAS         0.0551 
     58 H26        10.3835    2.8074    3.7560 H         1 DAS         0.0551 
     59 H59         3.1366    0.9338    5.8844 H         1 DAS         0.0000 
     60 H60         4.4755    1.5024    2.2828 H         1 DAS         0.0000 
     61 H61         0.0271   -2.0389    1.8933 H         1 DAS         0.0000 
@<TRIPOS>BOND
     1    1    5 ar   
     2    1    2 2    
     3    1   34 1    
     4    2    3 1    
     5    2   23 1    
     6    3    4 1    
     7    4    5 ar   
     8    4    6 ar   
     9    5   60 1    
    10    6    7 2    
    11    6   59 1    
    12    7    8 ar   
    13    7   12 ar   
    14    8    9 ar   
    15    8   35 1    
    16    9   10 ar   
    17    9   14 1    
    18   10   11 ar   
    19   10   61 1    
    20   11   13 1    
    21   11   12 ar   
    22   13   36 1    
    23   13   37 1    
    24   13   38 1    
    25   14   19 1    
    26   14   15 1    
    27   15   16 1    
    28   15   39 1    
    29   15   40 1    
    30   16   17 1    
    31   16   41 1    
    32   16   42 1    
    33   17   18 1    
    34   17   20 1    
    35   18   19 1    
    36   18   43 1    
    37   18   44 1    
    38   19   45 1    
    39   19   46 1    
    40   20   21 1    
    41   20   47 1    
    42   20   48 1    
    43   21   22 1    
    44   21   49 1    
    45   21   50 1    
    46   22   51 1    
    47   23   24 2    
    48   23   25 am   BACKBONE|DICT|INTERRES
    49   25   26 1    
    50   25   52 1    
    51   26   31 ar   
    52   26   27 ar   
    53   27   28 ar   
    54   27   33 1    
    55   28   29 ar   
    56   28   53 1    
    57   29   30 ar   
    58   29   54 1    
    59   30   31 ar   
    60   30   55 1    
    61   31   32 1    
    62   33   56 1    
    63   33   57 1    
    64   33   58 1    
@<TRIPOS>SUBSTRUCTURE
     1 DAS         1 GROUP             0       ****    0 ROOT    
@<TRIPOS>MOLECULE
~{N}-(2-chloro-6-methyl-phenyl)-2-[[6-[4-(2-hydroxyethyl)piperazin-1-yl]-2-methyl-pyrimidin-4-yl]amino]thiazole-5-carboxamide
62   65    1
SMALL
USER_CHARGES


@<TRIPOS>ATOM
      1 C1          5.9008    2.7554    3.3004 C.cat     1 DAS         0.4038 
      2 C2          6.2579    3.2019    4.5555 C.2       1 DAS        -0.3015 
      3 S1          5.2005    2.5310    5.7272 S.3       1 DAS        -0.0613 
      4 C3          4.3683    1.7104    4.4705 C.cat     1 DAS         0.6645 
      5 N1          4.8177    1.8998    3.2498 N.pl3     1 DAS        -0.6461 
      6 N2          3.2682    0.8910    4.7931 N.pl3     1 DAS        -0.8342 
      7 C4          2.3957    0.1013    4.0050 C.ar      1 DAS         0.7028 
      8 C5          2.6090    0.0862    2.6417 C.ar      1 DAS        -0.4500 
      9 C6          1.7375   -0.6941    1.9097 C.ar      1 DAS         0.6921 
     10 N3          0.7328   -1.4099    2.4558 N.pl3     1 DAS        -0.7653 
     11 C7          0.6285   -1.3130    3.7949 C.ar      1 DAS         0.6973 
     12 N4          1.4112   -0.5888    4.6174 N.2       1 DAS        -0.7143 
     13 C8         -0.4708   -2.0904    4.4354 C.3       1 DAS        -0.1354 
     14 N5          1.9190   -0.7355    0.5227 N.pl3     1 DAS        -0.7676 
     15 C9          1.5392   -1.9638   -0.1864 C.3       1 DAS         0.2009 
     16 C10         2.2575   -2.0489   -1.5351 C.3       1 DAS         0.1680 
     17 N6          2.0315   -0.8353   -2.3298 N.4       1 DAS        -0.7428 
     18 C11         2.5393    0.3368   -1.6064 C.3       1 DAS         0.1680 
     19 C12         1.8312    0.5015   -0.2594 C.3       1 DAS         0.2009 
     20 C13         2.6768   -0.9507   -3.6371 C.3       1 DAS         0.1705 
     21 C14         1.8160   -1.7849   -4.5783 C.3       1 DAS         0.1287 
     22 O1          2.4635   -1.8825   -5.8405 O.3       1 DAS        -0.6048 
     23 C15         7.3082    4.0774    4.9540 C.2       1 DAS         0.7227 
     24 O2          7.5125    4.3963    6.1504 O.2       1 DAS        -0.5937 
     25 N7          8.1534    4.5507    3.9204 N.am      1 DAS        -0.4696 
     26 C16         9.2898    5.3947    3.9991 C.ar      1 DAS         0.0597 
     27 C17        10.5250    4.9239    3.5539 C.ar      1 DAS        -0.0507 
     28 C18        11.6511    5.7438    3.6257 C.ar      1 DAS        -0.1207 
     29 C19        11.5420    7.0347    4.1429 C.ar      1 DAS        -0.1288 
     30 C20        10.3067    7.5056    4.5881 C.ar      1 DAS        -0.1154 
     31 C21         9.1806    6.6855    4.5162 C.ar      1 DAS        -0.0124 
     32 Cl1         7.6720    7.3123    5.0798 Cl        1 DAS        -0.1012 
     33 C22        10.6757    3.5459    2.9948 C.3       1 DAS        -0.0583 
     34 H1          6.4175    3.0537    2.4979 H         1 DAS         0.0462 
     35 H3          3.3356    0.5936    2.1784 H         1 DAS         0.1532 
     36 H4         -0.4491   -1.9282    5.5232 H         1 DAS         0.0650 
     37 H5         -0.3356   -3.1609    4.2216 H         1 DAS         0.0650 
     38 H6         -1.4387   -1.7557    4.0340 H         1 DAS         0.0650 
     39 H7          0.4515   -1.9598   -0.3500 H         1 DAS         0.0518 
     40 H8          1.8140   -2.8319    0.4308 H         1 DAS         0.0518 
     41 H9          3.3386   -2.1646   -1.3680 H         1 DAS         0.0410 
     42 H10         1.8788   -2.9146   -2.0982 H         1 DAS         0.0410 
     43 H11         3.6176    0.2170   -1.4251 H         1 DAS         0.0410 
     44 H12         2.3669    1.2418   -2.2076 H         1 DAS         0.0410 
     45 H13         2.3058    1.3163    0.3071 H         1 DAS         0.0518 
     46 H14         0.7713    0.7418   -0.4292 H         1 DAS         0.0518 
     47 H15         2.8134    0.0519   -4.0684 H         1 DAS         0.0480 
     48 H16         3.6568   -1.4364   -3.5207 H         1 DAS         0.0480 
     49 H17         1.6788   -2.7908   -4.1549 H         1 DAS         0.0291 
     50 H18         0.8353   -1.3025   -4.7026 H         1 DAS         0.0291 
     51 H19         1.9933   -2.4496   -6.6574 H         1 DAS         0.4027 
     52 H20         7.9607    4.2618    2.8767 H         1 DAS         0.3239 
     53 H21        12.6182    5.3865    3.2820 H         1 DAS         0.1377 
     54 H22        12.4187    7.6732    4.1987 H         1 DAS         0.1386 
     55 H23        10.2392    8.5140    4.9885 H         1 DAS         0.1482 
     56 H24        11.7241    3.3800    2.7063 H         1 DAS         0.0551 
     57 H25        10.0303    3.4363    2.1108 H         1 DAS         0.0551 
     58 H26        10.3835    2.8074    3.7560 H         1 DAS         0.0551 
     59 H59         3.1366    0.9338    5.8844 H         1 DAS         0.0000 
     60 H60         4.4755    1.5024    2.2828 H         1 DAS         0.0000 
     61 H61         0.0271   -2.0389    1.8933 H         1 DAS         0.0000 
     62 H62         0.9510   -0.7122   -2.4949 H         1 DAS         0.0000 
@<TRIPOS>BOND
     1    1    5 ar   
     2    1    2 2    
     3    1   34 1    
     4    2    3 1    
     5    2   23 1    
     6    3    4 1    
     7    4    5 ar   
     8    4    6 ar   
     9    5   60 1    
    10    6    7 2    
    11    6   59 1    
    12    7    8 ar   
    13    7   12 ar   
    14    8    9 ar   
    15    8   35 1    
    16    9   10 ar   
    17    9   14 1    
    18   10   11 ar   
    19   10   61 1    
    20   11   13 1    
    21   11   12 ar   
    22   13   36 1    
    23   13   37 1    
    24   13   38 1    
    25   14   19 1    
    26   14   15 1    
    27   15   16 1    
    28   15   39 1    
    29   15   40 1    
    30   16   17 1    
    31   16   41 1    
    32   16   42 1    
    33   17   18 1    
    34   17   20 1    
    35   17   62 1    
    36   18   19 1    
    37   18   43 1    
    38   18   44 1    
    39   19   45 1    
    40   19   46 1    
    41   20   21 1    
    42   20   47 1    
    43   20   48 1    
    44   21   22 1    
    45   21   49 1    
    46   21   50 1    
    47   22   51 1    
    48   23   24 2    
    49   23   25 am   BACKBONE|DICT|INTERRES
    50   25   26 1    
    51   25   52 1    
    52   26   31 ar   
    53   26   27 ar   
    54   27   28 ar   
    55   27   33 1    
    56   28   29 ar   
    57   28   53 1    
    58   29   30 ar   
    59   29   54 1    
    60   30   31 ar   
    61   30   55 1    
    62   31   32 1    
    63   33   56 1    
    64   33   57 1    
    65   33   58 1    
@<TRIPOS>SUBSTRUCTURE
     1 DAS         1 GROUP             0       ****    0 ROOT    
@<TRIPOS>MOLECULE
~{N}-(2-chloro-6-methyl-phenyl)-2-[[6-[4-(2-hydroxyethyl)piperazin-1-yl]-2-methyl-pyrimidin-4-yl]amino]thiazole-5-carboxamide
62   65    1
SMALL
USER_CHARGES


@<TRIPOS>ATOM
      1 C1          2.8912    1.0679    8.3232 C.cat     1 DAS         0.4038 
      2 C2          3.9723    1.9231    8.3673 C.2       1 DAS        -0.3015 
      3 S1          4.5696    2.1775    6.7799 S.3       1 DAS        -0.0613 
      4 C3          3.3449    1.1365    6.1786 C.cat     1 DAS         0.6645 
      5 N1          2.5297    0.6162    7.0690 N.pl3     1 DAS        -0.6461 
      6 N2          3.2682    0.8910    4.7931 N.pl3     1 DAS        -0.8342 
      7 C4          2.3957    0.1013    4.0050 C.ar      1 DAS         0.7028 
      8 C5          2.6090    0.0862    2.6417 C.ar      1 DAS        -0.4500 
      9 C6          1.7375   -0.6941    1.9097 C.ar      1 DAS         0.6921 
     10 N3          0.7328   -1.4099    2.4558 N.pl3     1 DAS        -0.7653 
     11 C7          0.6285   -1.3130    3.7949 C.ar      1 DAS         0.6973 
     12 N4          1.4112   -0.5888    4.6174 N.2       1 DAS        -0.7143 
     13 C8         -0.4708   -2.0904    4.4354 C.3       1 DAS        -0.1354 
     14 N5          1.9190   -0.7355    0.5227 N.pl3     1 DAS        -0.7676 
     15 C9          1.5392   -1.9638   -0.1864 C.3       1 DAS         0.2009 
     16 C10         2.2575   -2.0489   -1.5351 C.3       1 DAS         0.1680 
     17 N6          2.0315   -0.8353   -2.3298 N.4       1 DAS        -0.7428 
     18 C11         2.5393    0.3368   -1.6064 C.3       1 DAS         0.1680 
     19 C12         1.8312    0.5015   -0.2594 C.3       1 DAS         0.2009 
     20 C13         2.6768   -0.9507   -3.6371 C.3       1 DAS         0.1705 
     21 C14         1.8160   -1.7849   -4.5783 C.3       1 DAS         0.1287 
     22 O1          2.4635   -1.8825   -5.8405 O.3       1 DAS        -0.6048 
     23 C15         4.5938    2.5606    9.4788 C.2       1 DAS         0.7227 
     24 O2          5.5839    3.3227    9.3612 O.2       1 DAS        -0.5937 
     25 N7          4.0067    2.3209   10.7455 N.am      1 DAS        -0.4696 
     26 C16         4.3666    2.8310   12.0183 C.ar      1 DAS         0.0597 
     27 C17         3.4402    3.5814   12.7425 C.ar      1 DAS        -0.0507 
     28 C18         3.7814    4.0894   13.9960 C.ar      1 DAS        -0.1207 
     29 C19         5.0490    3.8469   14.5252 C.ar      1 DAS        -0.1288 
     30 C20         5.9753    3.0965   13.8010 C.ar      1 DAS        -0.1154 
     31 C21         5.6341    2.5886   12.5475 C.ar      1 DAS        -0.0124 
     32 Cl1         6.8146    1.6648   11.6875 Cl        1 DAS        -0.1012 
     33 C22         2.0740    3.8593   12.2037 C.3       1 DAS        -0.0583 
     34 H1          2.4214    0.8120    9.1681 H         1 DAS         0.0462 
     35 H3          3.3356    0.5936    2.1784 H         1 DAS         0.1532 
     36 H4         -0.4491   -1.9282    5.5232 H         1 DAS         0.0650 
     37 H5         -0.3356   -3.1609    4.2216 H         1 DAS         0.0650 
     38 H6         -1.4387   -1.7557    4.0340 H         1 DAS         0.0650 
     39 H7          0.4515   -1.9598   -0.3500 H         1 DAS         0.0518 
     40 H8          1.8140   -2.8319    0.4308 H         1 DAS         0.0518 
     41 H9          3.3386   -2.1646   -1.3680 H         1 DAS         0.0410 
     42 H10         1.8788   -2.9146   -2.0982 H         1 DAS         0.0410 
     43 H11         3.6176    0.2170   -1.4251 H         1 DAS         0.0410 
     44 H12         2.3669    1.2418   -2.2076 H         1 DAS         0.0410 
     45 H13         2.3058    1.3163    0.3071 H         1 DAS         0.0518 
     46 H14         0.7713    0.7418   -0.4292 H         1 DAS         0.0518 
     47 H15         2.8134    0.0519   -4.0684 H         1 DAS         0.0480 
     48 H16         3.6568   -1.4364   -3.5207 H         1 DAS         0.0480 
     49 H17         1.6788   -2.7908   -4.1549 H         1 DAS         0.0291 
     50 H18         0.8353   -1.3025   -4.7026 H         1 DAS         0.0291 
     51 H19         1.9933   -2.4496   -6.6574 H         1 DAS         0.4027 
     52 H20         3.1391    1.6501   10.8315 H         1 DAS         0.3239 
     53 H21         3.0672    4.6756   14.5682 H         1 DAS         0.1377 
     54 H22         5.3146    4.2423   15.5013 H         1 DAS         0.1386 
     55 H23         6.9589    2.9171   14.2280 H         1 DAS         0.1482 
     56 H24         1.5095    4.4632   12.9293 H         1 DAS         0.0551 
     57 H25         1.5482    2.9089   12.0298 H         1 DAS         0.0551 
     58 H26         2.1590    4.4102   11.2554 H         1 DAS         0.0551 
     59 H59         4.0775    1.4615    4.3140 H         1 DAS         0.0000 
     60 H60         1.6763   -0.0686    6.9559 H         1 DAS         0.0000 
     61 H61         0.0271   -2.0389    1.8933 H         1 DAS         0.0000 
     62 H62         0.9510   -0.7122   -2.4949 H         1 DAS         0.0000 
@<TRIPOS>BOND
     1    1    5 ar   
     2    1    2 2    
     3    1   34 1    
     4    2    3 1    
     5    2   23 1    
     6    3    4 1    
     7    4    5 ar   
     8    4    6 ar   
     9    5   60 1    
    10    6    7 2    
    11    6   59 1    
    12    7    8 ar   
    13    7   12 ar   
    14    8    9 ar   
    15    8   35 1    
    16    9   10 ar   
    17    9   14 1    
    18   10   11 ar   
    19   10   61 1    
    20   11   13 1    
    21   11   12 ar   
    22   13   36 1    
    23   13   37 1    
    24   13   38 1    
    25   14   19 1    
    26   14   15 1    
    27   15   16 1    
    28   15   39 1    
    29   15   40 1    
    30   16   17 1    
    31   16   41 1    
    32   16   42 1    
    33   17   18 1    
    34   17   20 1    
    35   17   62 1    
    36   18   19 1    
    37   18   43 1    
    38   18   44 1    
    39   19   45 1    
    40   19   46 1    
    41   20   21 1    
    42   20   47 1    
    43   20   48 1    
    44   21   22 1    
    45   21   49 1    
    46   21   50 1    
    47   22   51 1    
    48   23   24 2    
    49   23   25 am   BACKBONE|DICT|INTERRES
    50   25   26 1    
    51   25   52 1    
    52   26   31 ar   
    53   26   27 ar   
    54   27   28 ar   
    55   27   33 1    
    56   28   29 ar   
    57   28   53 1    
    58   29   30 ar   
    59   29   54 1    
    60   30   31 ar   
    61   30   55 1    
    62   31   32 1    
    63   33   56 1    
    64   33   57 1    
    65   33   58 1    
@<TRIPOS>SUBSTRUCTURE
     1 DAS         1 GROUP             0       ****    0 ROOT    
@<TRIPOS>MOLECULE
~{N}-(2-chloro-6-methyl-phenyl)-2-[[6-[4-(2-hydroxyethyl)piperazin-1-yl]-2-methyl-pyrimidin-4-yl]amino]thiazole-5-carboxamide
61   64    1
SMALL
USER_CHARGES


@<TRIPOS>ATOM
      1 C1          2.8912    1.0679    8.3232 C.cat     1 DAS         0.4038 
      2 C2          3.9723    1.9231    8.3673 C.2       1 DAS        -0.3015 
      3 S1          4.5696    2.1775    6.7799 S.3       1 DAS        -0.0613 
      4 C3          3.3449    1.1365    6.1786 C.cat     1 DAS         0.6645 
      5 N1          2.5297    0.6162    7.0690 N.pl3     1 DAS        -0.6461 
      6 N2          3.2682    0.8910    4.7931 N.pl3     1 DAS        -0.8342 
      7 C4          2.3957    0.1013    4.0050 C.ar      1 DAS         0.7028 
      8 C5          2.6090    0.0862    2.6417 C.ar      1 DAS        -0.4500 
      9 C6          1.7376   -0.6943    1.9097 C.ar      1 DAS         0.6921 
     10 N3          0.7328   -1.4099    2.4558 N.ar      1 DAS        -0.7653 
     11 C7          0.6283   -1.3128    3.7949 C.ar      1 DAS         0.6973 
     12 N4          1.4111   -0.5886    4.6174 N.pl3     1 DAS        -0.7143 
     13 C8         -0.4711   -2.0900    4.4354 C.3       1 DAS        -0.1354 
     14 N5          1.9199   -0.7366    0.5229 N.pl3     1 DAS        -0.7676 
     15 C9          1.5399   -1.9651   -0.1857 C.3       1 DAS         0.2009 
     16 C10         2.2588   -2.0514   -1.5340 C.3       1 DAS         0.1680 
     17 N6          2.0338   -0.8381   -2.3295 N.3       1 DAS        -0.7428 
     18 C11         2.5418    0.3342   -1.6066 C.3       1 DAS         0.1680 
     19 C12         1.8331    0.5000   -0.2600 C.3       1 DAS         0.2009 
     20 C13         2.6797   -0.9547   -3.6364 C.3       1 DAS         0.1705 
     21 C14         1.8191   -1.7889   -4.5775 C.3       1 DAS         0.1287 
     22 O1          2.4671   -1.8876   -5.8394 O.3       1 DAS        -0.6048 
     23 C15         4.5938    2.5606    9.4788 C.2       1 DAS         0.7227 
     24 O2          5.5839    3.3227    9.3612 O.2       1 DAS        -0.5937 
     25 N7          4.0067    2.3209   10.7455 N.am      1 DAS        -0.4696 
     26 C16         4.3666    2.8310   12.0183 C.ar      1 DAS         0.0597 
     27 C17         3.4402    3.5814   12.7425 C.ar      1 DAS        -0.0507 
     28 C18         3.7814    4.0894   13.9960 C.ar      1 DAS        -0.1207 
     29 C19         5.0490    3.8469   14.5252 C.ar      1 DAS        -0.1288 
     30 C20         5.9753    3.0965   13.8010 C.ar      1 DAS        -0.1154 
     31 C21         5.6341    2.5886   12.5475 C.ar      1 DAS        -0.0124 
     32 Cl1         6.8146    1.6648   11.6875 Cl        1 DAS        -0.1012 
     33 C22         2.0740    3.8593   12.2037 C.3       1 DAS        -0.0583 
     34 H1          2.3237    0.7373    9.1834 H         1 DAS         0.0462 
     35 H3          3.3354    0.5938    2.1783 H         1 DAS         0.1532 
     36 H4         -1.0335   -2.6346    3.6626 H         1 DAS         0.0650 
     37 H5         -1.1470   -1.4017    4.9640 H         1 DAS         0.0650 
     38 H6         -0.0441   -2.8070    5.1519 H         1 DAS         0.0650 
     39 H7          0.4522   -1.9607   -0.3499 H         1 DAS         0.0518 
     40 H8          1.8139   -2.8330    0.4321 H         1 DAS         0.0518 
     41 H9          3.3398   -2.1676   -1.3663 H         1 DAS         0.0410 
     42 H10         1.8800   -2.9173   -2.0968 H         1 DAS         0.0410 
     43 H11         3.6199    0.2139   -1.4246 H         1 DAS         0.0410 
     44 H12         2.3702    1.2388   -2.2084 H         1 DAS         0.0410 
     45 H13         2.3078    1.3149    0.3063 H         1 DAS         0.0518 
     46 H14         0.7734    0.7407   -0.4305 H         1 DAS         0.0518 
     47 H15         2.8170    0.0477   -4.0683 H         1 DAS         0.0480 
     48 H16         3.6595   -1.4408   -3.5192 H         1 DAS         0.0480 
     49 H17         1.6811   -2.7945   -4.1536 H         1 DAS         0.0291 
     50 H18         0.8386   -1.3061   -4.7027 H         1 DAS         0.0291 
     51 H19         1.9971   -2.4549   -6.6562 H         1 DAS         0.4027 
     52 H20         3.1391    1.6501   10.8315 H         1 DAS         0.3239 
     53 H21         3.0672    4.6756   14.5682 H         1 DAS         0.1377 
     54 H22         5.3146    4.2423   15.5013 H         1 DAS         0.1386 
     55 H23         6.9589    2.9171   14.2280 H         1 DAS         0.1482 
     56 H24         1.5095    4.4632   12.9293 H         1 DAS         0.0551 
     57 H25         1.5482    2.9089   12.0298 H         1 DAS         0.0551 
     58 H26         2.1590    4.4102   11.2554 H         1 DAS         0.0551 
     59 H59         4.0775    1.4615    4.3140 H         1 DAS         0.0000 
     60 H60         1.6763   -0.0686    6.9559 H         1 DAS         0.0000 
     61 H61         1.2216   -0.5917    5.7010 H         1 DAS         0.0000 
@<TRIPOS>BOND
     1    1    5 ar   
     2    1    2 2    
     3    1   34 1    
     4    2    3 1    
     5    2   23 1    
     6    3    4 1    
     7    4    5 ar   
     8    4    6 ar   
     9    5   60 1    
    10    6    7 1    
    11    6   59 1    
    12    7   12 ar   
    13    7    8 ar   
    14    8   35 1    
    15    8    9 ar   
    16    9   14 1    
    17    9   10 ar   
    18   10   11 ar   
    19   11   13 1    
    20   11   12 ar   
    21   12   61 1    
    22   13   36 1    
    23   13   37 1    
    24   13   38 1    
    25   14   19 1    
    26   14   15 1    
    27   15   16 1    
    28   15   39 1    
    29   15   40 1    
    30   16   17 1    
    31   16   41 1    
    32   16   42 1    
    33   17   18 1    
    34   17   20 1    
    35   18   19 1    
    36   18   43 1    
    37   18   44 1    
    38   19   45 1    
    39   19   46 1    
    40   20   21 1    
    41   20   47 1    
    42   20   48 1    
    43   21   22 1    
    44   21   49 1    
    45   21   50 1    
    46   22   51 1    
    47   23   24 2    
    48   23   25 am   BACKBONE|DICT|INTERRES
    49   25   26 1    
    50   25   52 1    
    51   26   31 ar   
    52   26   27 ar   
    53   27   28 ar   
    54   27   33 1    
    55   28   29 ar   
    56   28   53 1    
    57   29   30 ar   
    58   29   54 1    
    59   30   31 ar   
    60   30   55 1    
    61   31   32 1    
    62   33   56 1    
    63   33   57 1    
    64   33   58 1    
@<TRIPOS>SUBSTRUCTURE
     1 DAS         1 GROUP             0       ****    0 ROOT    
@<TRIPOS>MOLECULE
~{N}-(2-chloro-6-methyl-phenyl)-2-[[6-[4-(2-hydroxyethyl)piperazin-1-yl]-2-methyl-pyrimidin-4-yl]amino]thiazole-5-carboxamide
60   63    1
SMALL
USER_CHARGES


@<TRIPOS>ATOM
      1 C1          2.8912    1.0679    8.3232 C.cat     1 DAS         0.4038 
      2 C2          3.9723    1.9231    8.3673 C.2       1 DAS        -0.3015 
      3 S1          4.5696    2.1775    6.7799 S.3       1 DAS        -0.0613 
      4 C3          3.3449    1.1365    6.1786 C.cat     1 DAS         0.6645 
      5 N1          2.5297    0.6162    7.0690 N.pl3     1 DAS        -0.6461 
      6 N2          3.2682    0.8910    4.7931 N.2       1 DAS        -0.8342 
      7 C4          2.3957    0.1013    4.0050 C.ar      1 DAS         0.7028 
      8 C5          2.6090    0.0862    2.6417 C.ar      1 DAS        -0.4500 
      9 C6          1.7375   -0.6941    1.9097 C.ar      1 DAS         0.6921 
     10 N3          0.7328   -1.4099    2.4558 N.pl3     1 DAS        -0.7653 
     11 C7          0.6285   -1.3130    3.7949 C.ar      1 DAS         0.6973 
     12 N4          1.4112   -0.5888    4.6174 N.2       1 DAS        -0.7143 
     13 C8         -0.4708   -2.0904    4.4354 C.3       1 DAS        -0.1354 
     14 N5          1.9190   -0.7355    0.5227 N.pl3     1 DAS        -0.7676 
     15 C9          1.5392   -1.9638   -0.1864 C.3       1 DAS         0.2009 
     16 C10         2.2575   -2.0489   -1.5351 C.3       1 DAS         0.1680 
     17 N6          2.0315   -0.8353   -2.3298 N.3       1 DAS        -0.7428 
     18 C11         2.5393    0.3368   -1.6064 C.3       1 DAS         0.1680 
     19 C12         1.8312    0.5015   -0.2594 C.3       1 DAS         0.2009 
     20 C13         2.6768   -0.9507   -3.6371 C.3       1 DAS         0.1705 
     21 C14         1.8160   -1.7849   -4.5783 C.3       1 DAS         0.1287 
     22 O1          2.4635   -1.8825   -5.8405 O.3       1 DAS        -0.6048 
     23 C15         4.5938    2.5606    9.4788 C.2       1 DAS         0.7227 
     24 O2          5.5839    3.3227    9.3612 O.2       1 DAS        -0.5937 
     25 N7          4.0067    2.3209   10.7455 N.am      1 DAS        -0.4696 
     26 C16         4.3666    2.8310   12.0183 C.ar      1 DAS         0.0597 
     27 C17         3.4402    3.5814   12.7425 C.ar      1 DAS        -0.0507 
     28 C18         3.7814    4.0894   13.9960 C.ar      1 DAS        -0.1207 
     29 C19         5.0490    3.8469   14.5252 C.ar      1 DAS        -0.1288 
     30 C20         5.9753    3.0965   13.8010 C.ar      1 DAS        -0.1154 
     31 C21         5.6341    2.5886   12.5475 C.ar      1 DAS        -0.0124 
     32 Cl1         6.8146    1.6648   11.6875 Cl        1 DAS        -0.1012 
     33 C22         2.0740    3.8593   12.2037 C.3       1 DAS        -0.0583 
     34 H1          2.4214    0.8120    9.1681 H         1 DAS         0.0462 
     35 H3          3.3356    0.5936    2.1784 H         1 DAS         0.1532 
     36 H4         -0.4491   -1.9282    5.5232 H         1 DAS         0.0650 
     37 H5         -0.3356   -3.1609    4.2216 H         1 DAS         0.0650 
     38 H6         -1.4387   -1.7557    4.0340 H         1 DAS         0.0650 
     39 H7          0.4515   -1.9598   -0.3500 H         1 DAS         0.0518 
     40 H8          1.8140   -2.8319    0.4308 H         1 DAS         0.0518 
     41 H9          3.3386   -2.1646   -1.3680 H         1 DAS         0.0410 
     42 H10         1.8788   -2.9146   -2.0982 H         1 DAS         0.0410 
     43 H11         3.6176    0.2170   -1.4251 H         1 DAS         0.0410 
     44 H12         2.3669    1.2418   -2.2076 H         1 DAS         0.0410 
     45 H13         2.3058    1.3163    0.3071 H         1 DAS         0.0518 
     46 H14         0.7713    0.7418   -0.4292 H         1 DAS         0.0518 
     47 H15         2.8134    0.0519   -4.0684 H         1 DAS         0.0480 
     48 H16         3.6568   -1.4364   -3.5207 H         1 DAS         0.0480 
     49 H17         1.6788   -2.7908   -4.1549 H         1 DAS         0.0291 
     50 H18         0.8353   -1.3025   -4.7026 H         1 DAS         0.0291 
     51 H19         1.9933   -2.4496   -6.6574 H         1 DAS         0.4027 
     52 H20         3.1391    1.6501   10.8315 H         1 DAS         0.3239 
     53 H21         3.0672    4.6756   14.5682 H         1 DAS         0.1377 
     54 H22         5.3146    4.2423   15.5013 H         1 DAS         0.1386 
     55 H23         6.9589    2.9171   14.2280 H         1 DAS         0.1482 
     56 H24         1.5095    4.4632   12.9293 H         1 DAS         0.0551 
     57 H25         1.5482    2.9089   12.0298 H         1 DAS         0.0551 
     58 H26         2.1590    4.4102   11.2554 H         1 DAS         0.0551 
     59 H59         1.6763   -0.0686    6.9559 H         1 DAS         0.0000 
     60 H60         0.0271   -2.0389    1.8933 H         1 DAS         0.0000 
@<TRIPOS>BOND
     1    1    5 ar   
     2    1    2 2    
     3    1   34 1    
     4    2    3 1    
     5    2   23 1    
     6    3    4 1    
     7    4    5 ar   
     8    4    6 1    
     9    5   59 1    
    10    6    7 2    
    11    7    8 ar   
    12    7   12 ar   
    13    8    9 ar   
    14    8   35 1    
    15    9   10 ar   
    16    9   14 1    
    17   10   11 ar   
    18   10   60 1    
    19   11   13 1    
    20   11   12 ar   
    21   13   36 1    
    22   13   37 1    
    23   13   38 1    
    24   14   19 1    
    25   14   15 1    
    26   15   16 1    
    27   15   39 1    
    28   15   40 1    
    29   16   17 1    
    30   16   41 1    
    31   16   42 1    
    32   17   18 1    
    33   17   20 1    
    34   18   19 1    
    35   18   43 1    
    36   18   44 1    
    37   19   45 1    
    38   19   46 1    
    39   20   21 1    
    40   20   47 1    
    41   20   48 1    
    42   21   22 1    
    43   21   49 1    
    44   21   50 1    
    45   22   51 1    
    46   23   24 2    
    47   23   25 am   BACKBONE|DICT|INTERRES
    48   25   26 1    
    49   25   52 1    
    50   26   31 ar   
    51   26   27 ar   
    52   27   28 ar   
    53   27   33 1    
    54   28   29 ar   
    55   28   53 1    
    56   29   30 ar   
    57   29   54 1    
    58   30   31 ar   
    59   30   55 1    
    60   31   32 1    
    61   33   56 1    
    62   33   57 1    
    63   33   58 1    
@<TRIPOS>SUBSTRUCTURE
     1 DAS         1 GROUP             0       ****    0 ROOT    
@<TRIPOS>MOLECULE
~{N}-(2-chloro-6-methyl-phenyl)-2-[[6-[4-(2-hydroxyethyl)piperazin-1-yl]-2-methyl-pyrimidin-4-yl]amino]thiazole-5-carboxamide
60   63    1
SMALL
USER_CHARGES


@<TRIPOS>ATOM
      1 C1          5.9008    2.7554    3.3004 C.cat     1 DAS         0.4038 
      2 C2          6.2579    3.2019    4.5555 C.2       1 DAS        -0.3015 
      3 S1          5.2005    2.5310    5.7272 S.3       1 DAS        -0.0613 
      4 C3          4.3683    1.7104    4.4705 C.cat     1 DAS         0.6645 
      5 N1          4.8177    1.8998    3.2498 N.pl3     1 DAS        -0.6461 
      6 N2          3.2682    0.8910    4.7931 N.2       1 DAS        -0.8342 
      7 C4          2.3957    0.1013    4.0050 C.ar      1 DAS         0.7028 
      8 C5          2.6090    0.0862    2.6417 C.ar      1 DAS        -0.4500 
      9 C6          1.7375   -0.6941    1.9097 C.ar      1 DAS         0.6921 
     10 N3          0.7328   -1.4099    2.4558 N.pl3     1 DAS        -0.7653 
     11 C7          0.6285   -1.3130    3.7949 C.ar      1 DAS         0.6973 
     12 N4          1.4112   -0.5888    4.6174 N.2       1 DAS        -0.7143 
     13 C8         -0.4708   -2.0904    4.4354 C.3       1 DAS        -0.1354 
     14 N5          1.9190   -0.7355    0.5227 N.pl3     1 DAS        -0.7676 
     15 C9          1.5392   -1.9638   -0.1864 C.3       1 DAS         0.2009 
     16 C10         2.2575   -2.0489   -1.5351 C.3       1 DAS         0.1680 
     17 N6          2.0315   -0.8353   -2.3298 N.3       1 DAS        -0.7428 
     18 C11         2.5393    0.3368   -1.6064 C.3       1 DAS         0.1680 
     19 C12         1.8312    0.5015   -0.2594 C.3       1 DAS         0.2009 
     20 C13         2.6768   -0.9507   -3.6371 C.3       1 DAS         0.1705 
     21 C14         1.8160   -1.7849   -4.5783 C.3       1 DAS         0.1287 
     22 O1          2.4635   -1.8825   -5.8405 O.3       1 DAS        -0.6048 
     23 C15         7.3082    4.0774    4.9540 C.2       1 DAS         0.7227 
     24 O2          7.5125    4.3963    6.1504 O.2       1 DAS        -0.5937 
     25 N7          8.1534    4.5507    3.9204 N.am      1 DAS        -0.4696 
     26 C16         9.2898    5.3947    3.9991 C.ar      1 DAS         0.0597 
     27 C17        10.5250    4.9239    3.5539 C.ar      1 DAS        -0.0507 
     28 C18        11.6511    5.7438    3.6257 C.ar      1 DAS        -0.1207 
     29 C19        11.5420    7.0347    4.1429 C.ar      1 DAS        -0.1288 
     30 C20        10.3067    7.5056    4.5881 C.ar      1 DAS        -0.1154 
     31 C21         9.1806    6.6855    4.5162 C.ar      1 DAS        -0.0124 
     32 Cl1         7.6720    7.3123    5.0798 Cl        1 DAS        -0.1012 
     33 C22        10.6757    3.5459    2.9948 C.3       1 DAS        -0.0583 
     34 H1          6.4175    3.0537    2.4979 H         1 DAS         0.0462 
     35 H3          3.3356    0.5936    2.1784 H         1 DAS         0.1532 
     36 H4         -0.4491   -1.9282    5.5232 H         1 DAS         0.0650 
     37 H5         -0.3356   -3.1609    4.2216 H         1 DAS         0.0650 
     38 H6         -1.4387   -1.7557    4.0340 H         1 DAS         0.0650 
     39 H7          0.4515   -1.9598   -0.3500 H         1 DAS         0.0518 
     40 H8          1.8140   -2.8319    0.4308 H         1 DAS         0.0518 
     41 H9          3.3386   -2.1646   -1.3680 H         1 DAS         0.0410 
     42 H10         1.8788   -2.9146   -2.0982 H         1 DAS         0.0410 
     43 H11         3.6176    0.2170   -1.4251 H         1 DAS         0.0410 
     44 H12         2.3669    1.2418   -2.2076 H         1 DAS         0.0410 
     45 H13         2.3058    1.3163    0.3071 H         1 DAS         0.0518 
     46 H14         0.7713    0.7418   -0.4292 H         1 DAS         0.0518 
     47 H15         2.8134    0.0519   -4.0684 H         1 DAS         0.0480 
     48 H16         3.6568   -1.4364   -3.5207 H         1 DAS         0.0480 
     49 H17         1.6788   -2.7908   -4.1549 H         1 DAS         0.0291 
     50 H18         0.8353   -1.3025   -4.7026 H         1 DAS         0.0291 
     51 H19         1.9933   -2.4496   -6.6574 H         1 DAS         0.4027 
     52 H20         7.9607    4.2618    2.8767 H         1 DAS         0.3239 
     53 H21        12.6182    5.3865    3.2820 H         1 DAS         0.1377 
     54 H22        12.4187    7.6732    4.1987 H         1 DAS         0.1386 
     55 H23        10.2392    8.5140    4.9885 H         1 DAS         0.1482 
     56 H24        11.7241    3.3800    2.7063 H         1 DAS         0.0551 
     57 H25        10.0303    3.4363    2.1108 H         1 DAS         0.0551 
     58 H26        10.3835    2.8074    3.7560 H         1 DAS         0.0551 
     59 H59         4.4755    1.5024    2.2828 H         1 DAS         0.0000 
     60 H60         0.0271   -2.0389    1.8933 H         1 DAS         0.0000 
@<TRIPOS>BOND
     1    1    5 ar   
     2    1    2 2    
     3    1   34 1    
     4    2    3 1    
     5    2   23 1    
     6    3    4 1    
     7    4    5 ar   
     8    4    6 1    
     9    5   59 1    
    10    6    7 2    
    11    7    8 ar   
    12    7   12 ar   
    13    8    9 ar   
    14    8   35 1    
    15    9   10 ar   
    16    9   14 1    
    17   10   11 ar   
    18   10   60 1    
    19   11   13 1    
    20   11   12 ar   
    21   13   36 1    
    22   13   37 1    
    23   13   38 1    
    24   14   19 1    
    25   14   15 1    
    26   15   16 1    
    27   15   39 1    
    28   15   40 1    
    29   16   17 1    
    30   16   41 1    
    31   16   42 1    
    32   17   18 1    
    33   17   20 1    
    34   18   19 1    
    35   18   43 1    
    36   18   44 1    
    37   19   45 1    
    38   19   46 1    
    39   20   21 1    
    40   20   47 1    
    41   20   48 1    
    42   21   22 1    
    43   21   49 1    
    44   21   50 1    
    45   22   51 1    
    46   23   24 2    
    47   23   25 am   BACKBONE|DICT|INTERRES
    48   25   26 1    
    49   25   52 1    
    50   26   31 ar   
    51   26   27 ar   
    52   27   28 ar   
    53   27   33 1    
    54   28   29 ar   
    55   28   53 1    
    56   29   30 ar   
    57   29   54 1    
    58   30   31 ar   
    59   30   55 1    
    60   31   32 1    
    61   33   56 1    
    62   33   57 1    
    63   33   58 1    
@<TRIPOS>SUBSTRUCTURE
     1 DAS         1 GROUP             0       ****    0 ROOT    
@<TRIPOS>MOLECULE
~{N}-(2-chloro-6-methyl-phenyl)-2-[[6-[4-(2-hydroxyethyl)piperazin-1-yl]-2-methyl-pyrimidin-4-yl]amino]thiazole-5-carboxamide
62   65    1
SMALL
USER_CHARGES


@<TRIPOS>ATOM
      1 C1          2.8912    1.0679    8.3232 C.cat     1 DAS         0.4038 
      2 C2          3.9723    1.9231    8.3673 C.2       1 DAS        -0.3015 
      3 S1          4.5696    2.1775    6.7799 S.3       1 DAS        -0.0613 
      4 C3          3.3449    1.1365    6.1786 C.cat     1 DAS         0.6645 
      5 N1          2.5297    0.6162    7.0690 N.pl3     1 DAS        -0.6461 
      6 N2          3.2682    0.8910    4.7931 N.pl3     1 DAS        -0.8342 
      7 C4          2.3957    0.1013    4.0050 C.ar      1 DAS         0.7028 
      8 C5          2.6090    0.0862    2.6417 C.ar      1 DAS        -0.4500 
      9 C6          1.7376   -0.6943    1.9097 C.ar      1 DAS         0.6921 
     10 N3          0.7328   -1.4099    2.4558 N.ar      1 DAS        -0.7653 
     11 C7          0.6283   -1.3128    3.7949 C.ar      1 DAS         0.6973 
     12 N4          1.4111   -0.5886    4.6174 N.pl3     1 DAS        -0.7143 
     13 C8         -0.4711   -2.0900    4.4354 C.3       1 DAS        -0.1354 
     14 N5          1.9199   -0.7366    0.5229 N.pl3     1 DAS        -0.7676 
     15 C9          1.5399   -1.9651   -0.1857 C.3       1 DAS         0.2009 
     16 C10         2.2588   -2.0514   -1.5340 C.3       1 DAS         0.1680 
     17 N6          2.0338   -0.8381   -2.3295 N.4       1 DAS        -0.7428 
     18 C11         2.5418    0.3342   -1.6066 C.3       1 DAS         0.1680 
     19 C12         1.8331    0.5000   -0.2600 C.3       1 DAS         0.2009 
     20 C13         2.6797   -0.9547   -3.6364 C.3       1 DAS         0.1705 
     21 C14         1.8191   -1.7889   -4.5775 C.3       1 DAS         0.1287 
     22 O1          2.4671   -1.8876   -5.8394 O.3       1 DAS        -0.6048 
     23 C15         4.5938    2.5606    9.4788 C.2       1 DAS         0.7227 
     24 O2          5.5839    3.3227    9.3612 O.2       1 DAS        -0.5937 
     25 N7          4.0067    2.3209   10.7455 N.am      1 DAS        -0.4696 
     26 C16         4.3666    2.8310   12.0183 C.ar      1 DAS         0.0597 
     27 C17         3.4402    3.5814   12.7425 C.ar      1 DAS        -0.0507 
     28 C18         3.7814    4.0894   13.9960 C.ar      1 DAS        -0.1207 
     29 C19         5.0490    3.8469   14.5252 C.ar      1 DAS        -0.1288 
     30 C20         5.9753    3.0965   13.8010 C.ar      1 DAS        -0.1154 
     31 C21         5.6341    2.5886   12.5475 C.ar      1 DAS        -0.0124 
     32 Cl1         6.8146    1.6648   11.6875 Cl        1 DAS        -0.1012 
     33 C22         2.0740    3.8593   12.2037 C.3       1 DAS        -0.0583 
     34 H1          2.3237    0.7373    9.1834 H         1 DAS         0.0462 
     35 H3          3.3354    0.5938    2.1783 H         1 DAS         0.1532 
     36 H4         -1.0335   -2.6346    3.6626 H         1 DAS         0.0650 
     37 H5         -1.1470   -1.4017    4.9640 H         1 DAS         0.0650 
     38 H6         -0.0441   -2.8070    5.1519 H         1 DAS         0.0650 
     39 H7          0.4522   -1.9607   -0.3499 H         1 DAS         0.0518 
     40 H8          1.8139   -2.8330    0.4321 H         1 DAS         0.0518 
     41 H9          3.3398   -2.1676   -1.3663 H         1 DAS         0.0410 
     42 H10         1.8800   -2.9173   -2.0968 H         1 DAS         0.0410 
     43 H11         3.6199    0.2139   -1.4246 H         1 DAS         0.0410 
     44 H12         2.3702    1.2388   -2.2084 H         1 DAS         0.0410 
     45 H13         2.3078    1.3149    0.3063 H         1 DAS         0.0518 
     46 H14         0.7734    0.7407   -0.4305 H         1 DAS         0.0518 
     47 H15         2.8170    0.0477   -4.0683 H         1 DAS         0.0480 
     48 H16         3.6595   -1.4408   -3.5192 H         1 DAS         0.0480 
     49 H17         1.6811   -2.7945   -4.1536 H         1 DAS         0.0291 
     50 H18         0.8386   -1.3061   -4.7027 H         1 DAS         0.0291 
     51 H19         1.9971   -2.4549   -6.6562 H         1 DAS         0.4027 
     52 H20         3.1391    1.6501   10.8315 H         1 DAS         0.3239 
     53 H21         3.0672    4.6756   14.5682 H         1 DAS         0.1377 
     54 H22         5.3146    4.2423   15.5013 H         1 DAS         0.1386 
     55 H23         6.9589    2.9171   14.2280 H         1 DAS         0.1482 
     56 H24         1.5095    4.4632   12.9293 H         1 DAS         0.0551 
     57 H25         1.5482    2.9089   12.0298 H         1 DAS         0.0551 
     58 H26         2.1590    4.4102   11.2554 H         1 DAS         0.0551 
     59 H59         4.0775    1.4615    4.3140 H         1 DAS         0.0000 
     60 H60         1.6763   -0.0686    6.9559 H         1 DAS         0.0000 
     61 H61         1.2216   -0.5917    5.7010 H         1 DAS         0.0000 
     62 H62         0.9534   -0.7146   -2.4953 H         1 DAS         0.0000 
@<TRIPOS>BOND
     1    1    5 ar   
     2    1    2 2    
     3    1   34 1    
     4    2    3 1    
     5    2   23 1    
     6    3    4 1    
     7    4    5 ar   
     8    4    6 ar   
     9    5   60 1    
    10    6    7 1    
    11    6   59 1    
    12    7   12 ar   
    13    7    8 ar   
    14    8   35 1    
    15    8    9 ar   
    16    9   14 1    
    17    9   10 ar   
    18   10   11 ar   
    19   11   13 1    
    20   11   12 ar   
    21   12   61 1    
    22   13   36 1    
    23   13   37 1    
    24   13   38 1    
    25   14   19 1    
    26   14   15 1    
    27   15   16 1    
    28   15   39 1    
    29   15   40 1    
    30   16   17 1    
    31   16   41 1    
    32   16   42 1    
    33   17   18 1    
    34   17   20 1    
    35   17   62 1    
    36   18   19 1    
    37   18   43 1    
    38   18   44 1    
    39   19   45 1    
    40   19   46 1    
    41   20   21 1    
    42   20   47 1    
    43   20   48 1    
    44   21   22 1    
    45   21   49 1    
    46   21   50 1    
    47   22   51 1    
    48   23   24 2    
    49   23   25 am   BACKBONE|DICT|INTERRES
    50   25   26 1    
    51   25   52 1    
    52   26   31 ar   
    53   26   27 ar   
    54   27   28 ar   
    55   27   33 1    
    56   28   29 ar   
    57   28   53 1    
    58   29   30 ar   
    59   29   54 1    
    60   30   31 ar   
    61   30   55 1    
    62   31   32 1    
    63   33   56 1    
    64   33   57 1    
    65   33   58 1    
@<TRIPOS>SUBSTRUCTURE
     1 DAS         1 GROUP             0       ****    0 ROOT    
@<TRIPOS>MOLECULE
~{N}-(2-chloro-6-methyl-phenyl)-2-[[6-[4-(2-hydroxyethyl)piperazin-1-yl]-2-methyl-pyrimidin-4-yl]amino]thiazole-5-carboxamide
60   63    1
SMALL
USER_CHARGES


@<TRIPOS>ATOM
      1 C1          2.8912    1.0679    8.3232 C.2       1 DAS         0.4038 
      2 C2          3.9723    1.9231    8.3673 C.2       1 DAS        -0.3015 
      3 S1          4.5696    2.1775    6.7799 S.3       1 DAS        -0.0613 
      4 C3          3.3449    1.1365    6.1786 C.2       1 DAS         0.6645 
      5 N1          2.5297    0.6162    7.0690 N.pl3     1 DAS        -0.6461 
      6 N2          3.2682    0.8910    4.7931 N.2       1 DAS        -0.8342 
      7 C4          2.3957    0.1013    4.0050 C.ar      1 DAS         0.7028 
      8 C5          2.6090    0.0862    2.6417 C.ar      1 DAS        -0.4500 
      9 C6          1.7376   -0.6943    1.9097 C.ar      1 DAS         0.6921 
     10 N3          0.7328   -1.4099    2.4558 N.ar      1 DAS        -0.7653 
     11 C7          0.6283   -1.3128    3.7949 C.ar      1 DAS         0.6973 
     12 N4          1.4111   -0.5886    4.6174 N.pl3     1 DAS        -0.7143 
     13 C8         -0.4711   -2.0900    4.4354 C.3       1 DAS        -0.1354 
     14 N5          1.9199   -0.7366    0.5229 N.pl3     1 DAS        -0.7676 
     15 C9          1.5399   -1.9651   -0.1857 C.3       1 DAS         0.2009 
     16 C10         2.2588   -2.0514   -1.5340 C.3       1 DAS         0.1680 
     17 N6          2.0338   -0.8381   -2.3295 N.3       1 DAS        -0.7428 
     18 C11         2.5418    0.3342   -1.6066 C.3       1 DAS         0.1680 
     19 C12         1.8331    0.5000   -0.2600 C.3       1 DAS         0.2009 
     20 C13         2.6797   -0.9547   -3.6364 C.3       1 DAS         0.1705 
     21 C14         1.8191   -1.7889   -4.5775 C.3       1 DAS         0.1287 
     22 O1          2.4671   -1.8876   -5.8394 O.3       1 DAS        -0.6048 
     23 C15         4.5938    2.5606    9.4788 C.2       1 DAS         0.7227 
     24 O2          5.5839    3.3227    9.3612 O.2       1 DAS        -0.5937 
     25 N7          4.0067    2.3209   10.7455 N.am      1 DAS        -0.4696 
     26 C16         4.3666    2.8310   12.0183 C.ar      1 DAS         0.0597 
     27 C17         3.4402    3.5814   12.7425 C.ar      1 DAS        -0.0507 
     28 C18         3.7814    4.0894   13.9960 C.ar      1 DAS        -0.1207 
     29 C19         5.0490    3.8469   14.5252 C.ar      1 DAS        -0.1288 
     30 C20         5.9753    3.0965   13.8010 C.ar      1 DAS        -0.1154 
     31 C21         5.6341    2.5886   12.5475 C.ar      1 DAS        -0.0124 
     32 Cl1         6.8146    1.6648   11.6875 Cl        1 DAS        -0.1012 
     33 C22         2.0740    3.8593   12.2037 C.3       1 DAS        -0.0583 
     34 H1          2.3237    0.7373    9.1834 H         1 DAS         0.0462 
     35 H3          3.3354    0.5938    2.1783 H         1 DAS         0.1532 
     36 H4         -1.0335   -2.6346    3.6626 H         1 DAS         0.0650 
     37 H5         -1.1470   -1.4017    4.9640 H         1 DAS         0.0650 
     38 H6         -0.0441   -2.8070    5.1519 H         1 DAS         0.0650 
     39 H7          0.4522   -1.9607   -0.3499 H         1 DAS         0.0518 
     40 H8          1.8139   -2.8330    0.4321 H         1 DAS         0.0518 
     41 H9          3.3398   -2.1676   -1.3663 H         1 DAS         0.0410 
     42 H10         1.8800   -2.9173   -2.0968 H         1 DAS         0.0410 
     43 H11         3.6199    0.2139   -1.4246 H         1 DAS         0.0410 
     44 H12         2.3702    1.2388   -2.2084 H         1 DAS         0.0410 
     45 H13         2.3078    1.3149    0.3063 H         1 DAS         0.0518 
     46 H14         0.7734    0.7407   -0.4305 H         1 DAS         0.0518 
     47 H15         2.8170    0.0477   -4.0683 H         1 DAS         0.0480 
     48 H16         3.6595   -1.4408   -3.5192 H         1 DAS         0.0480 
     49 H17         1.6811   -2.7945   -4.1536 H         1 DAS         0.0291 
     50 H18         0.8386   -1.3061   -4.7027 H         1 DAS         0.0291 
     51 H19         1.9971   -2.4549   -6.6562 H         1 DAS         0.4027 
     52 H20         3.1391    1.6501   10.8315 H         1 DAS         0.3239 
     53 H21         3.0672    4.6756   14.5682 H         1 DAS         0.1377 
     54 H22         5.3146    4.2423   15.5013 H         1 DAS         0.1386 
     55 H23         6.9589    2.9171   14.2280 H         1 DAS         0.1482 
     56 H24         1.5095    4.4632   12.9293 H         1 DAS         0.0551 
     57 H25         1.5482    2.9089   12.0298 H         1 DAS         0.0551 
     58 H26         2.1590    4.4102   11.2554 H         1 DAS         0.0551 
     59 H59         1.6763   -0.0686    6.9559 H         1 DAS         0.0000 
     60 H60         1.2216   -0.5917    5.7010 H         1 DAS         0.0000 
@<TRIPOS>BOND
     1    1    5 1    
     2    1    2 2    
     3    1   34 1    
     4    2    3 1    
     5    2   23 1    
     6    3    4 1    
     7    4    5 1    
     8    4    6 2    
     9    5   59 1    
    10    6    7 1    
    11    7   12 ar   
    12    7    8 ar   
    13    8   35 1    
    14    8    9 ar   
    15    9   14 1    
    16    9   10 ar   
    17   10   11 ar   
    18   11   13 1    
    19   11   12 ar   
    20   12   60 1    
    21   13   36 1    
    22   13   37 1    
    23   13   38 1    
    24   14   19 1    
    25   14   15 1    
    26   15   16 1    
    27   15   39 1    
    28   15   40 1    
    29   16   17 1    
    30   16   41 1    
    31   16   42 1    
    32   17   18 1    
    33   17   20 1    
    34   18   19 1    
    35   18   43 1    
    36   18   44 1    
    37   19   45 1    
    38   19   46 1    
    39   20   21 1    
    40   20   47 1    
    41   20   48 1    
    42   21   22 1    
    43   21   49 1    
    44   21   50 1    
    45   22   51 1    
    46   23   24 2    
    47   23   25 am   BACKBONE|DICT|INTERRES
    48   25   26 1    
    49   25   52 1    
    50   26   31 ar   
    51   26   27 ar   
    52   27   28 ar   
    53   27   33 1    
    54   28   29 ar   
    55   28   53 1    
    56   29   30 ar   
    57   29   54 1    
    58   30   31 ar   
    59   30   55 1    
    60   31   32 1    
    61   33   56 1    
    62   33   57 1    
    63   33   58 1    
@<TRIPOS>SUBSTRUCTURE
     1 DAS         1 GROUP             0       ****    0 ROOT    
@<TRIPOS>MOLECULE
~{N}-(2-chloro-6-methyl-phenyl)-2-[[6-[4-(2-hydroxyethyl)piperazin-1-yl]-2-methyl-pyrimidin-4-yl]amino]thiazole-5-carboxamide
61   64    1
SMALL
USER_CHARGES


@<TRIPOS>ATOM
      1 C1          2.8912    1.0679    8.3232 C.2       1 DAS         0.4038 
      2 C2          3.9723    1.9231    8.3673 C.2       1 DAS        -0.3015 
      3 S1          4.5696    2.1775    6.7799 S.3       1 DAS        -0.0613 
      4 C3          3.3449    1.1365    6.1786 C.2       1 DAS         0.6645 
      5 N1          2.5297    0.6162    7.0690 N.pl3     1 DAS        -0.6461 
      6 N2          3.2682    0.8910    4.7931 N.2       1 DAS        -0.8342 
      7 C4          2.3957    0.1013    4.0050 C.ar      1 DAS         0.7028 
      8 C5          2.6090    0.0862    2.6417 C.ar      1 DAS        -0.4500 
      9 C6          1.7376   -0.6943    1.9097 C.ar      1 DAS         0.6921 
     10 N3          0.7328   -1.4099    2.4558 N.ar      1 DAS        -0.7653 
     11 C7          0.6283   -1.3128    3.7949 C.ar      1 DAS         0.6973 
     12 N4          1.4111   -0.5886    4.6174 N.pl3     1 DAS        -0.7143 
     13 C8         -0.4711   -2.0900    4.4354 C.3       1 DAS        -0.1354 
     14 N5          1.9199   -0.7366    0.5229 N.pl3     1 DAS        -0.7676 
     15 C9          1.5399   -1.9651   -0.1857 C.3       1 DAS         0.2009 
     16 C10         2.2588   -2.0514   -1.5340 C.3       1 DAS         0.1680 
     17 N6          2.0338   -0.8381   -2.3295 N.4       1 DAS        -0.7428 
     18 C11         2.5418    0.3342   -1.6066 C.3       1 DAS         0.1680 
     19 C12         1.8331    0.5000   -0.2600 C.3       1 DAS         0.2009 
     20 C13         2.6797   -0.9547   -3.6364 C.3       1 DAS         0.1705 
     21 C14         1.8191   -1.7889   -4.5775 C.3       1 DAS         0.1287 
     22 O1          2.4671   -1.8876   -5.8394 O.3       1 DAS        -0.6048 
     23 C15         4.5938    2.5606    9.4788 C.2       1 DAS         0.7227 
     24 O2          5.5839    3.3227    9.3612 O.2       1 DAS        -0.5937 
     25 N7          4.0067    2.3209   10.7455 N.am      1 DAS        -0.4696 
     26 C16         4.3666    2.8310   12.0183 C.ar      1 DAS         0.0597 
     27 C17         3.4402    3.5814   12.7425 C.ar      1 DAS        -0.0507 
     28 C18         3.7814    4.0894   13.9960 C.ar      1 DAS        -0.1207 
     29 C19         5.0490    3.8469   14.5252 C.ar      1 DAS        -0.1288 
     30 C20         5.9753    3.0965   13.8010 C.ar      1 DAS        -0.1154 
     31 C21         5.6341    2.5886   12.5475 C.ar      1 DAS        -0.0124 
     32 Cl1         6.8146    1.6648   11.6875 Cl        1 DAS        -0.1012 
     33 C22         2.0740    3.8593   12.2037 C.3       1 DAS        -0.0583 
     34 H1          2.3237    0.7373    9.1834 H         1 DAS         0.0462 
     35 H3          3.3354    0.5938    2.1783 H         1 DAS         0.1532 
     36 H4         -1.0335   -2.6346    3.6626 H         1 DAS         0.0650 
     37 H5         -1.1470   -1.4017    4.9640 H         1 DAS         0.0650 
     38 H6         -0.0441   -2.8070    5.1519 H         1 DAS         0.0650 
     39 H7          0.4522   -1.9607   -0.3499 H         1 DAS         0.0518 
     40 H8          1.8139   -2.8330    0.4321 H         1 DAS         0.0518 
     41 H9          3.3398   -2.1676   -1.3663 H         1 DAS         0.0410 
     42 H10         1.8800   -2.9173   -2.0968 H         1 DAS         0.0410 
     43 H11         3.6199    0.2139   -1.4246 H         1 DAS         0.0410 
     44 H12         2.3702    1.2388   -2.2084 H         1 DAS         0.0410 
     45 H13         2.3078    1.3149    0.3063 H         1 DAS         0.0518 
     46 H14         0.7734    0.7407   -0.4305 H         1 DAS         0.0518 
     47 H15         2.8170    0.0477   -4.0683 H         1 DAS         0.0480 
     48 H16         3.6595   -1.4408   -3.5192 H         1 DAS         0.0480 
     49 H17         1.6811   -2.7945   -4.1536 H         1 DAS         0.0291 
     50 H18         0.8386   -1.3061   -4.7027 H         1 DAS         0.0291 
     51 H19         1.9971   -2.4549   -6.6562 H         1 DAS         0.4027 
     52 H20         3.1391    1.6501   10.8315 H         1 DAS         0.3239 
     53 H21         3.0672    4.6756   14.5682 H         1 DAS         0.1377 
     54 H22         5.3146    4.2423   15.5013 H         1 DAS         0.1386 
     55 H23         6.9589    2.9171   14.2280 H         1 DAS         0.1482 
     56 H24         1.5095    4.4632   12.9293 H         1 DAS         0.0551 
     57 H25         1.5482    2.9089   12.0298 H         1 DAS         0.0551 
     58 H26         2.1590    4.4102   11.2554 H         1 DAS         0.0551 
     59 H59         1.6763   -0.0686    6.9559 H         1 DAS         0.0000 
     60 H60         1.2216   -0.5917    5.7010 H         1 DAS         0.0000 
     61 H61         0.9534   -0.7146   -2.4953 H         1 DAS         0.0000 
@<TRIPOS>BOND
     1    1    5 1    
     2    1    2 2    
     3    1   34 1    
     4    2    3 1    
     5    2   23 1    
     6    3    4 1    
     7    4    5 1    
     8    4    6 2    
     9    5   59 1    
    10    6    7 1    
    11    7   12 ar   
    12    7    8 ar   
    13    8   35 1    
    14    8    9 ar   
    15    9   14 1    
    16    9   10 ar   
    17   10   11 ar   
    18   11   13 1    
    19   11   12 ar   
    20   12   60 1    
    21   13   36 1    
    22   13   37 1    
    23   13   38 1    
    24   14   19 1    
    25   14   15 1    
    26   15   16 1    
    27   15   39 1    
    28   15   40 1    
    29   16   17 1    
    30   16   41 1    
    31   16   42 1    
    32   17   18 1    
    33   17   20 1    
    34   17   61 1    
    35   18   19 1    
    36   18   43 1    
    37   18   44 1    
    38   19   45 1    
    39   19   46 1    
    40   20   21 1    
    41   20   47 1    
    42   20   48 1    
    43   21   22 1    
    44   21   49 1    
    45   21   50 1    
    46   22   51 1    
    47   23   24 2    
    48   23   25 am   BACKBONE|DICT|INTERRES
    49   25   26 1    
    50   25   52 1    
    51   26   31 ar   
    52   26   27 ar   
    53   27   28 ar   
    54   27   33 1    
    55   28   29 ar   
    56   28   53 1    
    57   29   30 ar   
    58   29   54 1    
    59   30   31 ar   
    60   30   55 1    
    61   31   32 1    
    62   33   56 1    
    63   33   57 1    
    64   33   58 1    
@<TRIPOS>SUBSTRUCTURE
     1 DAS         1 GROUP             0       ****    0 ROOT    
@<TRIPOS>MOLECULE
~{N}-(2-chloro-6-methyl-phenyl)-2-[[6-[4-(2-hydroxyethyl)piperazin-1-yl]-2-methyl-pyrimidin-4-yl]amino]thiazole-5-carboxamide
61   64    1
SMALL
USER_CHARGES


@<TRIPOS>ATOM
      1 C1          5.9008    2.7554    3.3004 C.cat     1 DAS         0.4038 
      2 C2          6.2579    3.2019    4.5555 C.2       1 DAS        -0.3015 
      3 S1          5.2005    2.5310    5.7272 S.3       1 DAS        -0.0613 
      4 C3          4.3683    1.7104    4.4705 C.cat     1 DAS         0.6645 
      5 N1          4.8177    1.8998    3.2498 N.pl3     1 DAS        -0.6461 
      6 N2          3.2682    0.8910    4.7931 N.2       1 DAS        -0.8342 
      7 C4          2.3957    0.1013    4.0050 C.ar      1 DAS         0.7028 
      8 C5          2.6090    0.0862    2.6417 C.ar      1 DAS        -0.4500 
      9 C6          1.7375   -0.6941    1.9097 C.ar      1 DAS         0.6921 
     10 N3          0.7328   -1.4099    2.4558 N.pl3     1 DAS        -0.7653 
     11 C7          0.6285   -1.3130    3.7949 C.ar      1 DAS         0.6973 
     12 N4          1.4112   -0.5888    4.6174 N.2       1 DAS        -0.7143 
     13 C8         -0.4708   -2.0904    4.4354 C.3       1 DAS        -0.1354 
     14 N5          1.9190   -0.7355    0.5227 N.pl3     1 DAS        -0.7676 
     15 C9          1.5392   -1.9638   -0.1864 C.3       1 DAS         0.2009 
     16 C10         2.2575   -2.0489   -1.5351 C.3       1 DAS         0.1680 
     17 N6          2.0315   -0.8353   -2.3298 N.4       1 DAS        -0.7428 
     18 C11         2.5393    0.3368   -1.6064 C.3       1 DAS         0.1680 
     19 C12         1.8312    0.5015   -0.2594 C.3       1 DAS         0.2009 
     20 C13         2.6768   -0.9507   -3.6371 C.3       1 DAS         0.1705 
     21 C14         1.8160   -1.7849   -4.5783 C.3       1 DAS         0.1287 
     22 O1          2.4635   -1.8825   -5.8405 O.3       1 DAS        -0.6048 
     23 C15         7.3082    4.0774    4.9540 C.2       1 DAS         0.7227 
     24 O2          7.5125    4.3963    6.1504 O.2       1 DAS        -0.5937 
     25 N7          8.1534    4.5507    3.9204 N.am      1 DAS        -0.4696 
     26 C16         9.2898    5.3947    3.9991 C.ar      1 DAS         0.0597 
     27 C17        10.5250    4.9239    3.5539 C.ar      1 DAS        -0.0507 
     28 C18        11.6511    5.7438    3.6257 C.ar      1 DAS        -0.1207 
     29 C19        11.5420    7.0347    4.1429 C.ar      1 DAS        -0.1288 
     30 C20        10.3067    7.5056    4.5881 C.ar      1 DAS        -0.1154 
     31 C21         9.1806    6.6855    4.5162 C.ar      1 DAS        -0.0124 
     32 Cl1         7.6720    7.3123    5.0798 Cl        1 DAS        -0.1012 
     33 C22        10.6757    3.5459    2.9948 C.3       1 DAS        -0.0583 
     34 H1          6.4175    3.0537    2.4979 H         1 DAS         0.0462 
     35 H3          3.3356    0.5936    2.1784 H         1 DAS         0.1532 
     36 H4         -0.4491   -1.9282    5.5232 H         1 DAS         0.0650 
     37 H5         -0.3356   -3.1609    4.2216 H         1 DAS         0.0650 
     38 H6         -1.4387   -1.7557    4.0340 H         1 DAS         0.0650 
     39 H7          0.4515   -1.9598   -0.3500 H         1 DAS         0.0518 
     40 H8          1.8140   -2.8319    0.4308 H         1 DAS         0.0518 
     41 H9          3.3386   -2.1646   -1.3680 H         1 DAS         0.0410 
     42 H10         1.8788   -2.9146   -2.0982 H         1 DAS         0.0410 
     43 H11         3.6176    0.2170   -1.4251 H         1 DAS         0.0410 
     44 H12         2.3669    1.2418   -2.2076 H         1 DAS         0.0410 
     45 H13         2.3058    1.3163    0.3071 H         1 DAS         0.0518 
     46 H14         0.7713    0.7418   -0.4292 H         1 DAS         0.0518 
     47 H15         2.8134    0.0519   -4.0684 H         1 DAS         0.0480 
     48 H16         3.6568   -1.4364   -3.5207 H         1 DAS         0.0480 
     49 H17         1.6788   -2.7908   -4.1549 H         1 DAS         0.0291 
     50 H18         0.8353   -1.3025   -4.7026 H         1 DAS         0.0291 
     51 H19         1.9933   -2.4496   -6.6574 H         1 DAS         0.4027 
     52 H20         7.9607    4.2618    2.8767 H         1 DAS         0.3239 
     53 H21        12.6182    5.3865    3.2820 H         1 DAS         0.1377 
     54 H22        12.4187    7.6732    4.1987 H         1 DAS         0.1386 
     55 H23        10.2392    8.5140    4.9885 H         1 DAS         0.1482 
     56 H24        11.7241    3.3800    2.7063 H         1 DAS         0.0551 
     57 H25        10.0303    3.4363    2.1108 H         1 DAS         0.0551 
     58 H26        10.3835    2.8074    3.7560 H         1 DAS         0.0551 
     59 H59         4.4755    1.5024    2.2828 H         1 DAS         0.0000 
     60 H60         0.0271   -2.0389    1.8933 H         1 DAS         0.0000 
     61 H61         0.9510   -0.7122   -2.4949 H         1 DAS         0.0000 
@<TRIPOS>BOND
     1    1    5 ar   
     2    1    2 2    
     3    1   34 1    
     4    2    3 1    
     5    2   23 1    
     6    3    4 1    
     7    4    5 ar   
     8    4    6 1    
     9    5   59 1    
    10    6    7 2    
    11    7    8 ar   
    12    7   12 ar   
    13    8    9 ar   
    14    8   35 1    
    15    9   10 ar   
    16    9   14 1    
    17   10   11 ar   
    18   10   60 1    
    19   11   13 1    
    20   11   12 ar   
    21   13   36 1    
    22   13   37 1    
    23   13   38 1    
    24   14   19 1    
    25   14   15 1    
    26   15   16 1    
    27   15   39 1    
    28   15   40 1    
    29   16   17 1    
    30   16   41 1    
    31   16   42 1    
    32   17   18 1    
    33   17   20 1    
    34   17   61 1    
    35   18   19 1    
    36   18   43 1    
    37   18   44 1    
    38   19   45 1    
    39   19   46 1    
    40   20   21 1    
    41   20   47 1    
    42   20   48 1    
    43   21   22 1    
    44   21   49 1    
    45   21   50 1    
    46   22   51 1    
    47   23   24 2    
    48   23   25 am   BACKBONE|DICT|INTERRES
    49   25   26 1    
    50   25   52 1    
    51   26   31 ar   
    52   26   27 ar   
    53   27   28 ar   
    54   27   33 1    
    55   28   29 ar   
    56   28   53 1    
    57   29   30 ar   
    58   29   54 1    
    59   30   31 ar   
    60   30   55 1    
    61   31   32 1    
    62   33   56 1    
    63   33   57 1    
    64   33   58 1    
@<TRIPOS>SUBSTRUCTURE
     1 DAS         1 GROUP             0       ****    0 ROOT    
@<TRIPOS>MOLECULE
~{N}-(2-chloro-6-methyl-phenyl)-2-[[6-[4-(2-hydroxyethyl)piperazin-1-yl]-2-methyl-pyrimidin-4-yl]amino]thiazole-5-carboxamide
61   64    1
SMALL
USER_CHARGES


@<TRIPOS>ATOM
      1 C1          2.8912    1.0679    8.3232 C.cat     1 DAS         0.4038 
      2 C2          3.9723    1.9231    8.3673 C.2       1 DAS        -0.3015 
      3 S1          4.5696    2.1775    6.7799 S.3       1 DAS        -0.0613 
      4 C3          3.3449    1.1365    6.1786 C.cat     1 DAS         0.6645 
      5 N1          2.5297    0.6162    7.0690 N.pl3     1 DAS        -0.6461 
      6 N2          3.2682    0.8910    4.7931 N.2       1 DAS        -0.8342 
      7 C4          2.3957    0.1013    4.0050 C.ar      1 DAS         0.7028 
      8 C5          2.6090    0.0862    2.6417 C.ar      1 DAS        -0.4500 
      9 C6          1.7375   -0.6941    1.9097 C.ar      1 DAS         0.6921 
     10 N3          0.7328   -1.4099    2.4558 N.pl3     1 DAS        -0.7653 
     11 C7          0.6285   -1.3130    3.7949 C.ar      1 DAS         0.6973 
     12 N4          1.4112   -0.5888    4.6174 N.2       1 DAS        -0.7143 
     13 C8         -0.4708   -2.0904    4.4354 C.3       1 DAS        -0.1354 
     14 N5          1.9190   -0.7355    0.5227 N.pl3     1 DAS        -0.7676 
     15 C9          1.5392   -1.9638   -0.1864 C.3       1 DAS         0.2009 
     16 C10         2.2575   -2.0489   -1.5351 C.3       1 DAS         0.1680 
     17 N6          2.0315   -0.8353   -2.3298 N.4       1 DAS        -0.7428 
     18 C11         2.5393    0.3368   -1.6064 C.3       1 DAS         0.1680 
     19 C12         1.8312    0.5015   -0.2594 C.3       1 DAS         0.2009 
     20 C13         2.6768   -0.9507   -3.6371 C.3       1 DAS         0.1705 
     21 C14         1.8160   -1.7849   -4.5783 C.3       1 DAS         0.1287 
     22 O1          2.4635   -1.8825   -5.8405 O.3       1 DAS        -0.6048 
     23 C15         4.5938    2.5606    9.4788 C.2       1 DAS         0.7227 
     24 O2          5.5839    3.3227    9.3612 O.2       1 DAS        -0.5937 
     25 N7          4.0067    2.3209   10.7455 N.am      1 DAS        -0.4696 
     26 C16         4.3666    2.8310   12.0183 C.ar      1 DAS         0.0597 
     27 C17         3.4402    3.5814   12.7425 C.ar      1 DAS        -0.0507 
     28 C18         3.7814    4.0894   13.9960 C.ar      1 DAS        -0.1207 
     29 C19         5.0490    3.8469   14.5252 C.ar      1 DAS        -0.1288 
     30 C20         5.9753    3.0965   13.8010 C.ar      1 DAS        -0.1154 
     31 C21         5.6341    2.5886   12.5475 C.ar      1 DAS        -0.0124 
     32 Cl1         6.8146    1.6648   11.6875 Cl        1 DAS        -0.1012 
     33 C22         2.0740    3.8593   12.2037 C.3       1 DAS        -0.0583 
     34 H1          2.4214    0.8120    9.1681 H         1 DAS         0.0462 
     35 H3          3.3356    0.5936    2.1784 H         1 DAS         0.1532 
     36 H4         -0.4491   -1.9282    5.5232 H         1 DAS         0.0650 
     37 H5         -0.3356   -3.1609    4.2216 H         1 DAS         0.0650 
     38 H6         -1.4387   -1.7557    4.0340 H         1 DAS         0.0650 
     39 H7          0.4515   -1.9598   -0.3500 H         1 DAS         0.0518 
     40 H8          1.8140   -2.8319    0.4308 H         1 DAS         0.0518 
     41 H9          3.3386   -2.1646   -1.3680 H         1 DAS         0.0410 
     42 H10         1.8788   -2.9146   -2.0982 H         1 DAS         0.0410 
     43 H11         3.6176    0.2170   -1.4251 H         1 DAS         0.0410 
     44 H12         2.3669    1.2418   -2.2076 H         1 DAS         0.0410 
     45 H13         2.3058    1.3163    0.3071 H         1 DAS         0.0518 
     46 H14         0.7713    0.7418   -0.4292 H         1 DAS         0.0518 
     47 H15         2.8134    0.0519   -4.0684 H         1 DAS         0.0480 
     48 H16         3.6568   -1.4364   -3.5207 H         1 DAS         0.0480 
     49 H17         1.6788   -2.7908   -4.1549 H         1 DAS         0.0291 
     50 H18         0.8353   -1.3025   -4.7026 H         1 DAS         0.0291 
     51 H19         1.9933   -2.4496   -6.6574 H         1 DAS         0.4027 
     52 H20         3.1391    1.6501   10.8315 H         1 DAS         0.3239 
     53 H21         3.0672    4.6756   14.5682 H         1 DAS         0.1377 
     54 H22         5.3146    4.2423   15.5013 H         1 DAS         0.1386 
     55 H23         6.9589    2.9171   14.2280 H         1 DAS         0.1482 
     56 H24         1.5095    4.4632   12.9293 H         1 DAS         0.0551 
     57 H25         1.5482    2.9089   12.0298 H         1 DAS         0.0551 
     58 H26         2.1590    4.4102   11.2554 H         1 DAS         0.0551 
     59 H59         1.6763   -0.0686    6.9559 H         1 DAS         0.0000 
     60 H60         0.0271   -2.0389    1.8933 H         1 DAS         0.0000 
     61 H61         0.9510   -0.7122   -2.4949 H         1 DAS         0.0000 
@<TRIPOS>BOND
     1    1    5 ar   
     2    1    2 2    
     3    1   34 1    
     4    2    3 1    
     5    2   23 1    
     6    3    4 1    
     7    4    5 ar   
     8    4    6 1    
     9    5   59 1    
    10    6    7 2    
    11    7    8 ar   
    12    7   12 ar   
    13    8    9 ar   
    14    8   35 1    
    15    9   10 ar   
    16    9   14 1    
    17   10   11 ar   
    18   10   60 1    
    19   11   13 1    
    20   11   12 ar   
    21   13   36 1    
    22   13   37 1    
    23   13   38 1    
    24   14   19 1    
    25   14   15 1    
    26   15   16 1    
    27   15   39 1    
    28   15   40 1    
    29   16   17 1    
    30   16   41 1    
    31   16   42 1    
    32   17   18 1    
    33   17   20 1    
    34   17   61 1    
    35   18   19 1    
    36   18   43 1    
    37   18   44 1    
    38   19   45 1    
    39   19   46 1    
    40   20   21 1    
    41   20   47 1    
    42   20   48 1    
    43   21   22 1    
    44   21   49 1    
    45   21   50 1    
    46   22   51 1    
    47   23   24 2    
    48   23   25 am   BACKBONE|DICT|INTERRES
    49   25   26 1    
    50   25   52 1    
    51   26   31 ar   
    52   26   27 ar   
    53   27   28 ar   
    54   27   33 1    
    55   28   29 ar   
    56   28   53 1    
    57   29   30 ar   
    58   29   54 1    
    59   30   31 ar   
    60   30   55 1    
    61   31   32 1    
    62   33   56 1    
    63   33   57 1    
    64   33   58 1    
@<TRIPOS>SUBSTRUCTURE
     1 DAS         1 GROUP             0       ****    0 ROOT    
@<TRIPOS>MOLECULE
~{N}-(2-chloro-6-methyl-phenyl)-2-[[6-[4-(2-hydroxyethyl)piperazin-1-yl]-2-methyl-pyrimidin-4-yl]amino]thiazole-5-carboxamide
59   62    1
SMALL
USER_CHARGES


@<TRIPOS>ATOM
      1 C1          2.8907    1.0686    8.3231 C.2       1 DAS         0.4038 
      2 C2          3.9716    1.9240    8.3671 C.2       1 DAS        -0.3015 
      3 S1          4.5688    2.1785    6.7797 S.3       1 DAS        -0.0613 
      4 C3          3.3443    1.1372    6.1785 C.2       1 DAS         0.6645 
      5 N1          2.5292    0.6167    7.0689 N.2       1 DAS        -0.6461 
      6 N2          3.2677    0.8917    4.7930 N.2       1 DAS        -0.8342 
      7 C4          2.3953    0.1017    4.0049 C.ar      1 DAS         0.7028 
      8 C5          2.6088    0.0865    2.6416 C.ar      1 DAS        -0.4500 
      9 C6          1.7378   -0.6945    1.9097 C.ar      1 DAS         0.6921 
     10 N3          0.7323   -1.4093    2.4557 N.2       1 DAS        -0.7653 
     11 C7          0.6272   -1.3114    3.7947 C.ar      1 DAS         0.6973 
     12 N4          1.4099   -0.5870    4.6172 N.pl3     1 DAS        -0.7143 
     13 C8         -0.4730   -2.0876    4.4350 C.3       1 DAS        -0.1354 
     14 N5          1.9202   -0.7370    0.5229 N.pl3     1 DAS        -0.7676 
     15 C9          1.5401   -1.9656   -0.1856 C.3       1 DAS         0.2009 
     16 C10         2.2593   -2.0522   -1.5337 C.3       1 DAS         0.1680 
     17 N6          2.0345   -0.8389   -2.3294 N.3       1 DAS        -0.7428 
     18 C11         2.5425    0.3334   -1.6066 C.3       1 DAS         0.1680 
     19 C12         1.8337    0.4994   -0.2601 C.3       1 DAS         0.2009 
     20 C13         2.6805   -0.9558   -3.6363 C.3       1 DAS         0.1705 
     21 C14         1.8199   -1.7900   -4.5774 C.3       1 DAS         0.1287 
     22 O1          2.4681   -1.8890   -5.8391 O.3       1 DAS        -0.6048 
     23 C15         4.5929    2.5617    9.4787 C.2       1 DAS         0.7227 
     24 O2          5.5829    3.3240    9.3611 O.2       1 DAS        -0.5937 
     25 N7          4.0059    2.3219   10.7453 N.am      1 DAS        -0.4696 
     26 C16         4.3657    2.8321   12.0182 C.ar      1 DAS         0.0597 
     27 C17         3.4392    3.5823   12.7424 C.ar      1 DAS        -0.0507 
     28 C18         3.7802    4.0904   13.9959 C.ar      1 DAS        -0.1207 
     29 C19         5.0479    3.8482   14.5251 C.ar      1 DAS        -0.1288 
     30 C20         5.9744    3.0981   13.8009 C.ar      1 DAS        -0.1154 
     31 C21         5.6333    2.5900   12.5474 C.ar      1 DAS        -0.0124 
     32 Cl1         6.8140    1.6665   11.6874 Cl        1 DAS        -0.1012 
     33 C22         2.0729    3.8598   12.2035 C.3       1 DAS        -0.0583 
     34 H1          2.3232    0.7378    9.1833 H         1 DAS         0.0462 
     35 H3          3.3354    0.5938    2.1783 H         1 DAS         0.1532 
     36 H4         -1.0352   -2.6324    3.6623 H         1 DAS         0.0650 
     37 H5         -1.1487   -1.3986    4.9629 H         1 DAS         0.0650 
     38 H6         -0.0467   -2.8045    5.1523 H         1 DAS         0.0650 
     39 H7          0.4525   -1.9611   -0.3498 H         1 DAS         0.0518 
     40 H8          1.8140   -2.8334    0.4325 H         1 DAS         0.0518 
     41 H9          3.3401   -2.1684   -1.3658 H         1 DAS         0.0410 
     42 H10         1.8804   -2.9180   -2.0965 H         1 DAS         0.0410 
     43 H11         3.6206    0.2130   -1.4244 H         1 DAS         0.0410 
     44 H12         2.3712    1.2380   -2.2086 H         1 DAS         0.0410 
     45 H13         2.3084    1.3144    0.3061 H         1 DAS         0.0518 
     46 H14         0.7741    0.7403   -0.4308 H         1 DAS         0.0518 
     47 H15         2.8181    0.0465   -4.0682 H         1 DAS         0.0480 
     48 H16         3.6602   -1.4420   -3.5188 H         1 DAS         0.0480 
     49 H17         1.6818   -2.7956   -4.1533 H         1 DAS         0.0291 
     50 H18         0.8396   -1.3071   -4.7027 H         1 DAS         0.0291 
     51 H19         1.9982   -2.4564   -6.6559 H         1 DAS         0.4027 
     52 H21         3.0659    4.6764   14.5681 H         1 DAS         0.1377 
     53 H22         5.3134    4.2437   15.5011 H         1 DAS         0.1386 
     54 H23         6.9580    2.9189   14.2278 H         1 DAS         0.1482 
     55 H24         1.5083    4.4636   12.9292 H         1 DAS         0.0551 
     56 H25         1.5473    2.9093   12.0297 H         1 DAS         0.0551 
     57 H26         2.1577    4.4108   11.2552 H         1 DAS         0.0551 
     58 H58         1.2197   -0.5892    5.7006 H         1 DAS         0.0000 
     59 H59         3.1384    1.6509   10.8314 H         1 DAS         0.0000 
@<TRIPOS>BOND
     1    1    5 1    
     2    1    2 2    
     3    1   34 1    
     4    2    3 1    
     5    2   23 1    
     6    3    4 1    
     7    4    5 2    
     8    4    6 1    
     9    6    7 2    
    10    7   12 ar   
    11    7    8 ar   
    12    8   35 1    
    13    8    9 ar   
    14    9   14 1    
    15    9   10 ar   
    16   10   11 ar   
    17   11   13 1    
    18   11   12 ar   
    19   12   58 1    
    20   13   36 1    
    21   13   37 1    
    22   13   38 1    
    23   14   19 1    
    24   14   15 1    
    25   15   16 1    
    26   15   39 1    
    27   15   40 1    
    28   16   17 1    
    29   16   41 1    
    30   16   42 1    
    31   17   18 1    
    32   17   20 1    
    33   18   19 1    
    34   18   43 1    
    35   18   44 1    
    36   19   45 1    
    37   19   46 1    
    38   20   21 1    
    39   20   47 1    
    40   20   48 1    
    41   21   22 1    
    42   21   49 1    
    43   21   50 1    
    44   22   51 1    
    45   23   24 2    
    46   23   25 am   BACKBONE|DICT|INTERRES
    47   25   26 1    
    48   25   59 1    
    49   26   31 ar   
    50   26   27 ar   
    51   27   28 ar   
    52   27   33 1    
    53   28   29 ar   
    54   28   52 1    
    55   29   30 ar   
    56   29   53 1    
    57   30   31 ar   
    58   30   54 1    
    59   31   32 1    
    60   33   55 1    
    61   33   56 1    
    62   33   57 1    
@<TRIPOS>SUBSTRUCTURE
     1 DAS         1 GROUP             0       ****    0 ROOT    
@<TRIPOS>MOLECULE
~{N}-(2-chloro-6-methyl-phenyl)-2-[[6-[4-(2-hydroxyethyl)piperazin-1-yl]-2-methyl-pyrimidin-4-yl]amino]thiazole-5-carboxamide
59   62    1
SMALL
USER_CHARGES


@<TRIPOS>ATOM
      1 C1          5.8998    2.7568    3.3003 C.2       1 DAS         0.4038 
      2 C2          6.2568    3.2033    4.5553 C.2       1 DAS        -0.3015 
      3 S1          5.1996    2.5322    5.7270 S.3       1 DAS        -0.0613 
      4 C3          4.3676    1.7114    4.4704 C.2       1 DAS         0.6645 
      5 N1          4.8169    1.9008    3.2496 N.2       1 DAS        -0.6461 
      6 N2          3.2677    0.8917    4.7930 N.2       1 DAS        -0.8342 
      7 C4          2.3953    0.1017    4.0049 C.ar      1 DAS         0.7028 
      8 C5          2.6088    0.0865    2.6416 C.ar      1 DAS        -0.4500 
      9 C6          1.7378   -0.6945    1.9097 C.ar      1 DAS         0.6921 
     10 N3          0.7323   -1.4093    2.4557 N.2       1 DAS        -0.7653 
     11 C7          0.6272   -1.3114    3.7947 C.ar      1 DAS         0.6973 
     12 N4          1.4099   -0.5870    4.6172 N.pl3     1 DAS        -0.7143 
     13 C8         -0.4730   -2.0876    4.4350 C.3       1 DAS        -0.1354 
     14 N5          1.9202   -0.7370    0.5229 N.pl3     1 DAS        -0.7676 
     15 C9          1.5401   -1.9656   -0.1856 C.3       1 DAS         0.2009 
     16 C10         2.2593   -2.0522   -1.5337 C.3       1 DAS         0.1680 
     17 N6          2.0345   -0.8389   -2.3294 N.3       1 DAS        -0.7428 
     18 C11         2.5425    0.3334   -1.6066 C.3       1 DAS         0.1680 
     19 C12         1.8337    0.4994   -0.2601 C.3       1 DAS         0.2009 
     20 C13         2.6805   -0.9558   -3.6363 C.3       1 DAS         0.1705 
     21 C14         1.8199   -1.7900   -4.5774 C.3       1 DAS         0.1287 
     22 O1          2.4681   -1.8890   -5.8391 O.3       1 DAS        -0.6048 
     23 C15         7.3069    4.0790    4.9537 C.2       1 DAS         0.7227 
     24 O2          7.5111    4.3981    6.1502 O.2       1 DAS        -0.5937 
     25 N7          8.1520    4.5526    3.9202 N.am      1 DAS        -0.4696 
     26 C16         9.2881    5.3969    3.9989 C.ar      1 DAS         0.0597 
     27 C17        10.5234    4.9263    3.5536 C.ar      1 DAS        -0.0507 
     28 C18        11.6494    5.7466    3.6254 C.ar      1 DAS        -0.1207 
     29 C19        11.5399    7.0374    4.1425 C.ar      1 DAS        -0.1288 
     30 C20        10.3045    7.5080    4.5878 C.ar      1 DAS        -0.1154 
     31 C21         9.1786    6.6877    4.5159 C.ar      1 DAS        -0.0124 
     32 Cl1         7.6698    7.3141    5.0795 Cl        1 DAS        -0.1012 
     33 C22        10.6745    3.5484    2.9945 C.3       1 DAS        -0.0583 
     34 H1          6.3991    3.0258    2.3785 H         1 DAS         0.0462 
     35 H3          3.3354    0.5938    2.1783 H         1 DAS         0.1532 
     36 H4         -1.0352   -2.6324    3.6623 H         1 DAS         0.0650 
     37 H5         -1.1487   -1.3986    4.9629 H         1 DAS         0.0650 
     38 H6         -0.0467   -2.8045    5.1523 H         1 DAS         0.0650 
     39 H7          0.4525   -1.9611   -0.3498 H         1 DAS         0.0518 
     40 H8          1.8140   -2.8334    0.4325 H         1 DAS         0.0518 
     41 H9          3.3401   -2.1684   -1.3658 H         1 DAS         0.0410 
     42 H10         1.8804   -2.9180   -2.0965 H         1 DAS         0.0410 
     43 H11         3.6206    0.2130   -1.4244 H         1 DAS         0.0410 
     44 H12         2.3712    1.2380   -2.2086 H         1 DAS         0.0410 
     45 H13         2.3084    1.3144    0.3061 H         1 DAS         0.0518 
     46 H14         0.7741    0.7403   -0.4308 H         1 DAS         0.0518 
     47 H15         2.8181    0.0465   -4.0682 H         1 DAS         0.0480 
     48 H16         3.6602   -1.4420   -3.5188 H         1 DAS         0.0480 
     49 H17         1.6818   -2.7956   -4.1533 H         1 DAS         0.0291 
     50 H18         0.8396   -1.3071   -4.7027 H         1 DAS         0.0291 
     51 H19         1.9982   -2.4564   -6.6559 H         1 DAS         0.4027 
     52 H21        12.6166    5.3895    3.2816 H         1 DAS         0.1377 
     53 H22        12.4165    7.6762    4.1983 H         1 DAS         0.1386 
     54 H23        10.2367    8.5164    4.9882 H         1 DAS         0.1482 
     55 H24        11.7229    3.3827    2.7060 H         1 DAS         0.0551 
     56 H25        10.0291    3.4386    2.1106 H         1 DAS         0.0551 
     57 H26        10.3825    2.8099    3.7557 H         1 DAS         0.0551 
     58 H58         1.2197   -0.5892    5.7006 H         1 DAS         0.0000 
     59 H59         7.9593    4.2636    2.8764 H         1 DAS         0.0000 
@<TRIPOS>BOND
     1    1    5 1    
     2    1    2 2    
     3    1   34 1    
     4    2    3 1    
     5    2   23 1    
     6    3    4 1    
     7    4    5 2    
     8    4    6 1    
     9    6    7 2    
    10    7   12 ar   
    11    7    8 ar   
    12    8   35 1    
    13    8    9 ar   
    14    9   14 1    
    15    9   10 ar   
    16   10   11 ar   
    17   11   13 1    
    18   11   12 ar   
    19   12   58 1    
    20   13   36 1    
    21   13   37 1    
    22   13   38 1    
    23   14   19 1    
    24   14   15 1    
    25   15   16 1    
    26   15   39 1    
    27   15   40 1    
    28   16   17 1    
    29   16   41 1    
    30   16   42 1    
    31   17   18 1    
    32   17   20 1    
    33   18   19 1    
    34   18   43 1    
    35   18   44 1    
    36   19   45 1    
    37   19   46 1    
    38   20   21 1    
    39   20   47 1    
    40   20   48 1    
    41   21   22 1    
    42   21   49 1    
    43   21   50 1    
    44   22   51 1    
    45   23   24 2    
    46   23   25 am   BACKBONE|DICT|INTERRES
    47   25   26 1    
    48   25   59 1    
    49   26   31 ar   
    50   26   27 ar   
    51   27   28 ar   
    52   27   33 1    
    53   28   29 ar   
    54   28   52 1    
    55   29   30 ar   
    56   29   53 1    
    57   30   31 ar   
    58   30   54 1    
    59   31   32 1    
    60   33   55 1    
    61   33   56 1    
    62   33   57 1    
@<TRIPOS>SUBSTRUCTURE
     1 DAS         1 GROUP             0       ****    0 ROOT    
@<TRIPOS>MOLECULE
~{N}-(2-chloro-6-methyl-phenyl)-2-[[6-[4-(2-hydroxyethyl)piperazin-1-yl]-2-methyl-pyrimidin-4-yl]amino]thiazole-5-carboxamide
60   63    1
SMALL
USER_CHARGES


@<TRIPOS>ATOM
      1 C1          2.8905    1.0688    8.3231 C.2       1 DAS         0.4038 
      2 C2          3.9713    1.9243    8.3671 C.2       1 DAS        -0.3015 
      3 S1          4.5685    2.1789    6.7797 S.3       1 DAS        -0.0613 
      4 C3          3.3441    1.1375    6.1785 C.2       1 DAS         0.6645 
      5 N1          2.5291    0.6169    7.0689 N.2       1 DAS        -0.6461 
      6 N2          3.2675    0.8919    4.7930 N.pl3     1 DAS        -0.8342 
      7 C4          2.3952    0.1019    4.0049 C.ar      1 DAS         0.7028 
      8 C5          2.6085    0.0868    2.6416 C.ar      1 DAS        -0.4500 
      9 C6          1.7377   -0.6944    1.9097 C.ar      1 DAS         0.6921 
     10 N3          0.7328   -1.4100    2.4558 N.pl3     1 DAS        -0.7653 
     11 C7          0.6284   -1.3129    3.7949 C.ar      1 DAS         0.6973 
     12 N4          1.4110   -0.5885    4.6174 N.ar      1 DAS        -0.7143 
     13 C8         -0.4708   -2.0904    4.4354 C.3       1 DAS        -0.1354 
     14 N5          1.9200   -0.7367    0.5229 N.pl3     1 DAS        -0.7676 
     15 C9          1.5400   -1.9653   -0.1857 C.3       1 DAS         0.2009 
     16 C10         2.2590   -2.0516   -1.5339 C.3       1 DAS         0.1680 
     17 N6          2.0340   -0.8382   -2.3295 N.4       1 DAS        -0.7428 
     18 C11         2.5419    0.3340   -1.6066 C.3       1 DAS         0.1680 
     19 C12         1.8332    0.4998   -0.2600 C.3       1 DAS         0.2009 
     20 C13         2.6798   -0.9548   -3.6364 C.3       1 DAS         0.1705 
     21 C14         1.8192   -1.7891   -4.5775 C.3       1 DAS         0.1287 
     22 O1          2.4673   -1.8878   -5.8393 O.co2     1 DAS        -0.6048 
     23 C15         4.5926    2.5621    9.4786 C.2       1 DAS         0.7227 
     24 O2          5.5825    3.3245    9.3610 O.2       1 DAS        -0.5937 
     25 N7          4.0056    2.3222   10.7453 N.am      1 DAS        -0.4696 
     26 C16         4.3654    2.8325   12.0181 C.ar      1 DAS         0.0597 
     27 C17         3.4388    3.5826   12.7423 C.ar      1 DAS        -0.0507 
     28 C18         3.7798    4.0907   13.9958 C.ar      1 DAS        -0.1207 
     29 C19         5.0475    3.8487   14.5250 C.ar      1 DAS        -0.1288 
     30 C20         5.9741    3.0986   13.8008 C.ar      1 DAS        -0.1154 
     31 C21         5.6330    2.5905   12.5473 C.ar      1 DAS        -0.0124 
     32 Cl1         6.8138    1.6671   11.6873 Cl        1 DAS        -0.1012 
     33 C22         2.0725    3.8600   12.2035 C.3       1 DAS        -0.0583 
     34 H1          2.4208    0.8127    9.1680 H         1 DAS         0.0462 
     35 H2          4.0766    1.4626    4.3138 H         1 DAS         0.4579 
     36 H3          3.3562    0.6206    2.2466 H         1 DAS         0.1532 
     37 H4         -0.4492   -1.9280    5.5231 H         1 DAS         0.0650 
     38 H5         -0.3354   -3.1610    4.2218 H         1 DAS         0.0650 
     39 H6         -1.4387   -1.7559    4.0339 H         1 DAS         0.0650 
     40 H7          1.8155   -2.8395    0.4224 H         1 DAS         0.0518 
     41 H8          0.4538   -1.9673   -0.3596 H         1 DAS         0.0518 
     42 H9          3.3399   -2.1677   -1.3662 H         1 DAS         0.0410 
     43 H10         1.8801   -2.9174   -2.0968 H         1 DAS         0.0410 
     44 H11         3.6200    0.2138   -1.4246 H         1 DAS         0.0410 
     45 H12         2.3703    1.2387   -2.2084 H         1 DAS         0.0410 
     46 H13         0.7764    0.7459   -0.4408 H         1 DAS         0.0518 
     47 H14         2.3107    1.3201    0.2960 H         1 DAS         0.0518 
     48 H15         2.8172    0.0475   -4.0682 H         1 DAS         0.0480 
     49 H16         3.6596   -1.4409   -3.5192 H         1 DAS         0.0480 
     50 H17         1.6813   -2.7947   -4.1536 H         1 DAS         0.0291 
     51 H18         0.8388   -1.3063   -4.7027 H         1 DAS         0.0291 
     52 H20         3.1382    1.6512   10.8313 H         1 DAS         0.3239 
     53 H21         3.0654    4.6767   14.5680 H         1 DAS         0.1377 
     54 H22         5.3130    4.2442   15.5010 H         1 DAS         0.1386 
     55 H23         6.9577    2.9195   14.2277 H         1 DAS         0.1482 
     56 H24         1.5078    4.4638   12.9292 H         1 DAS         0.0551 
     57 H25         1.5470    2.9094   12.0296 H         1 DAS         0.0551 
     58 H26         2.1572    4.4109   11.2552 H         1 DAS         0.0551 
     59 H59         0.9536   -0.7147   -2.4953 H         1 DAS         0.0000 
     60 H60         0.0743   -2.0127    1.8130 H         1 DAS         0.0000 
@<TRIPOS>BOND
     1    1    5 1    
     2    1    2 2    
     3    1   34 1    
     4    2    3 1    
     5    2   23 1    
     6    3    4 1    
     7    4    5 2    
     8    4    6 1    
     9    6    7 1    
    10    6   35 1    
    11    7    8 ar   
    12    7   12 ar   
    13    8   36 1    
    14    8    9 ar   
    15    9   14 1    
    16    9   10 ar   
    17   10   60 1    
    18   10   11 ar   
    19   11   13 1    
    20   11   12 ar   
    21   13   37 1    
    22   13   38 1    
    23   13   39 1    
    24   14   19 1    
    25   14   15 1    
    26   15   16 1    
    27   15   40 1    
    28   15   41 1    
    29   16   17 1    
    30   16   42 1    
    31   16   43 1    
    32   17   18 1    
    33   17   20 1    
    34   17   59 1    
    35   18   19 1    
    36   18   44 1    
    37   18   45 1    
    38   19   46 1    
    39   19   47 1    
    40   20   21 1    
    41   20   48 1    
    42   20   49 1    
    43   21   22 1    
    44   21   50 1    
    45   21   51 1    
    46   23   24 2    
    47   23   25 am   BACKBONE|DICT|INTERRES
    48   25   26 1    
    49   25   52 1    
    50   26   31 ar   
    51   26   27 ar   
    52   27   28 ar   
    53   27   33 1    
    54   28   29 ar   
    55   28   53 1    
    56   29   30 ar   
    57   29   54 1    
    58   30   31 ar   
    59   30   55 1    
    60   31   32 1    
    61   33   56 1    
    62   33   57 1    
    63   33   58 1    
@<TRIPOS>SUBSTRUCTURE
     1 DAS         1 GROUP             0       ****    0 ROOT    
