@<TRIPOS>MOLECULE
1N1
60   63    1
SMALL
USER_CHARGES


@<TRIPOS>ATOM
      1 C1         46.6110   82.6200   38.8410 C.2       1 DAS         0.0000 
      2 C2         46.7750   82.0670   40.0440 C.2       1 DAS         0.0000 
      3 C3         47.6870   82.4940   41.1480 C.2       1 DAS         0.0000 
      4 N1         39.1540   74.8480   36.4620 N.3       1 DAS         0.0000 
      5 C4         51.3280   84.7110   43.8460 C.ar      1 DAS         0.0000 
      6 C5         51.6490   83.9220   42.7330 C.ar      1 DAS         0.0000 
      7 C6         50.6600   83.5350   41.8220 C.ar      1 DAS         0.0000 
      8 C7         51.0540   82.7460   40.6060 C.3       1 DAS         0.0000 
      9 C8         43.3450   79.0450   38.8240 C.ar      1 DAS         0.0000 
     10 C9         42.2600   78.4660   38.1410 C.ar      1 DAS         0.0000 
     11 C10        41.6410   77.3640   38.7640 C.ar      1 DAS         0.0000 
     12 C11        43.1380   77.5250   40.5610 C.ar      1 DAS         0.0000 
     13 C12        43.6000   77.0970   41.9190 C.3       1 DAS         0.0000 
     14 C13        39.8200   75.5660   38.8090 C.3       1 DAS         0.0000 
     15 C14        39.9050   77.1490   36.8840 C.3       1 DAS         0.0000 
     16 C15        39.2210   73.7370   35.5030 C.3       1 DAS         0.0000 
     17 C16        38.3550   73.8890   34.2270 C.3       1 DAS         0.0000 
     18 N2         43.9770   80.1180   38.2570 N.pl3     1 DAS         0.0000 
     19 C17        45.0120   80.8680   38.7420 C.2       1 DAS         0.0000 
     20 N3         45.5400   81.9390   38.1020 N.2       1 DAS         0.0000 
     21 S1         45.8120   80.6770   40.2960 S.3       1 DAS         0.0000 
     22 N4         48.3930   83.6260   41.1040 N.am      1 DAS         0.0000 
     23 C18        49.3330   83.9150   42.0370 C.ar      1 DAS         0.0000 
     24 C19        49.0210   84.6530   43.2010 C.ar      1 DAS         0.0000 
     25 C20        50.0050   85.0710   44.1070 C.ar      1 DAS         0.0000 
     26 Cl1        47.3940   85.0560   43.5890 Cl        1 DAS         0.0000 
     27 O1         47.7260   81.7050   42.0920 O.2       1 DAS         0.0000 
     28 N5         42.0970   76.9050   39.9750 N.pl3     1 DAS         0.0000 
     29 N6         43.7640   78.5580   40.0120 N.ar      1 DAS         0.0000 
     30 N7         40.4900   76.7170   38.1650 N.pl3     1 DAS         0.0000 
     31 C21        39.6220   74.4100   37.7990 C.3       1 DAS         0.0000 
     32 C22        39.9110   75.9790   35.8960 C.3       1 DAS         0.0000 
     33 O2         37.4960   75.0150   34.2610 O.3       1 DAS         0.0000 
     34 H1         47.1860   83.4530   38.4630 H         1 DAS         0.0000 
     35 H2         52.1130   85.0440   44.5090 H         1 DAS         0.0000 
     36 H3         52.6710   83.6090   42.5770 H         1 DAS         0.0000 
     37 H4         50.1593   82.5287   40.0042 H         1 DAS         0.0000 
     38 H5         51.5242   81.8018   40.9181 H         1 DAS         0.0000 
     39 H6         51.7671   83.3298   40.0053 H         1 DAS         0.0000 
     40 H7         41.9190   78.8460   37.1890 H         1 DAS         0.0000 
     41 H8         44.4548   77.7167   42.2276 H         1 DAS         0.0000 
     42 H9         43.9056   76.0408   41.8863 H         1 DAS         0.0000 
     43 H10        42.7791   77.2190   42.6409 H         1 DAS         0.0000 
     44 H11        40.4359   75.2044   39.6456 H         1 DAS         0.0000 
     45 H12        38.8356   75.8792   39.1870 H         1 DAS         0.0000 
     46 H13        38.8701   77.4837   37.0479 H         1 DAS         0.0000 
     47 H14        40.4977   77.9788   36.4715 H         1 DAS         0.0000 
     48 H15        40.2576   73.6141   35.1561 H         1 DAS         0.0000 
     49 H16        38.8856   72.8102   35.9915 H         1 DAS         0.0000 
     50 H17        39.0101   73.9996   33.3503 H         1 DAS         0.0000 
     51 H18        37.7245   72.9962   34.1032 H         1 DAS         0.0000 
     52 H19        43.6592   80.4849   37.2699 H         1 DAS         0.0000 
     53 H20        48.2185   84.3520   40.2962 H         1 DAS         0.0000 
     54 H21        49.7480   85.6530   44.9790 H         1 DAS         0.0000 
     55 H22        38.8860   73.7198   38.2371 H         1 DAS         0.0000 
     56 H23        40.5905   73.8981   37.6989 H         1 DAS         0.0000 
     57 H24        40.9486   75.6672   35.7059 H         1 DAS         0.0000 
     58 H25        39.4447   76.2964   34.9517 H         1 DAS         0.0000 
     59 H26        36.8323   75.2264   33.4096 H         1 DAS         0.0000 
     60 H60        41.6125   76.0412   40.4536 H         1 DAS         0.0000 
@<TRIPOS>BOND
     1    1    2 2    
     2    1   20 1    
     3    1   34 1    
     4    2    3 1    
     5    2   21 1    
     6    3   22 am   BACKBONE|DICT|INTERRES
     7    3   27 2    
     8    4   16 1    
     9    4   31 1    
    10    4   32 1    
    11    5    6 ar   
    12    5   25 ar   
    13    5   35 1    
    14    6    7 ar   
    15    6   36 1    
    16    7    8 1    
    17    7   23 ar   
    18    8   37 1    
    19    8   38 1    
    20    8   39 1    
    21    9   10 ar   
    22    9   18 1    
    23    9   29 ar   
    24   10   11 ar   
    25   10   40 1    
    26   11   28 ar   
    27   11   30 1    
    28   12   13 1    
    29   12   28 ar   
    30   12   29 ar   
    31   13   41 1    
    32   13   42 1    
    33   13   43 1    
    34   14   30 1    
    35   14   31 1    
    36   14   44 1    
    37   14   45 1    
    38   15   30 1    
    39   15   32 1    
    40   15   46 1    
    41   15   47 1    
    42   16   17 1    
    43   16   48 1    
    44   16   49 1    
    45   17   33 1    
    46   17   50 1    
    47   17   51 1    
    48   18   19 1    
    49   18   52 1    
    50   19   20 2    
    51   19   21 1    
    52   22   23 1    
    53   22   53 1    
    54   23   24 ar   
    55   24   25 ar   
    56   24   26 1    
    57   25   54 1    
    58   28   60 1    
    59   31   55 1    
    60   31   56 1    
    61   32   57 1    
    62   32   58 1    
    63   33   59 1    
@<TRIPOS>SUBSTRUCTURE
     1 DAS         1 GROUP             0       ****    0 ROOT    
@<TRIPOS>MOLECULE
1N1
59   62    1
SMALL
USER_CHARGES


@<TRIPOS>ATOM
      1 C1         46.6110   82.6200   38.8410 C.2       1 DAS         0.0000 
      2 C2         46.7750   82.0670   40.0440 C.2       1 DAS         0.0000 
      3 C3         47.6870   82.4940   41.1480 C.2       1 DAS         0.0000 
      4 N1         39.1540   74.8480   36.4620 N.3       1 DAS         0.0000 
      5 C4         51.3280   84.7110   43.8460 C.ar      1 DAS         0.0000 
      6 C5         51.6490   83.9220   42.7330 C.ar      1 DAS         0.0000 
      7 C6         50.6600   83.5350   41.8220 C.ar      1 DAS         0.0000 
      8 C7         51.0540   82.7460   40.6060 C.3       1 DAS         0.0000 
      9 C8         43.3450   79.0450   38.8240 C.ar      1 DAS         0.0000 
     10 C9         42.2600   78.4660   38.1410 C.ar      1 DAS         0.0000 
     11 C10        41.6410   77.3640   38.7640 C.ar      1 DAS         0.0000 
     12 C11        43.1380   77.5250   40.5610 C.ar      1 DAS         0.0000 
     13 C12        43.6000   77.0970   41.9190 C.3       1 DAS         0.0000 
     14 C13        39.8200   75.5660   38.8090 C.3       1 DAS         0.0000 
     15 C14        39.9050   77.1490   36.8840 C.3       1 DAS         0.0000 
     16 C15        39.2210   73.7370   35.5030 C.3       1 DAS         0.0000 
     17 C16        38.3550   73.8890   34.2270 C.3       1 DAS         0.0000 
     18 N2         43.9770   80.1180   38.2570 N.pl3     1 DAS         0.0000 
     19 C17        45.0120   80.8680   38.7420 C.2       1 DAS         0.0000 
     20 N3         45.5400   81.9390   38.1020 N.2       1 DAS         0.0000 
     21 S1         45.8120   80.6770   40.2960 S.3       1 DAS         0.0000 
     22 N4         48.3930   83.6260   41.1040 N.am      1 DAS         0.0000 
     23 C18        49.3330   83.9150   42.0370 C.ar      1 DAS         0.0000 
     24 C19        49.0210   84.6530   43.2010 C.ar      1 DAS         0.0000 
     25 C20        50.0050   85.0710   44.1070 C.ar      1 DAS         0.0000 
     26 Cl1        47.3940   85.0560   43.5890 Cl        1 DAS         0.0000 
     27 O1         47.7260   81.7050   42.0920 O.2       1 DAS         0.0000 
     28 N5         42.0970   76.9050   39.9750 N.ar      1 DAS         0.0000 
     29 N6         43.7640   78.5580   40.0120 N.ar      1 DAS         0.0000 
     30 N7         40.4900   76.7170   38.1650 N.pl3     1 DAS         0.0000 
     31 C21        39.6220   74.4100   37.7990 C.3       1 DAS         0.0000 
     32 C22        39.9110   75.9790   35.8960 C.3       1 DAS         0.0000 
     33 O2         37.4960   75.0150   34.2610 O.3       1 DAS         0.0000 
     34 H1         47.1860   83.4530   38.4630 H         1 DAS         0.0000 
     35 H2         52.1130   85.0440   44.5090 H         1 DAS         0.0000 
     36 H3         52.6710   83.6090   42.5770 H         1 DAS         0.0000 
     37 H4         50.1593   82.5287   40.0042 H         1 DAS         0.0000 
     38 H5         51.5242   81.8018   40.9181 H         1 DAS         0.0000 
     39 H6         51.7671   83.3298   40.0053 H         1 DAS         0.0000 
     40 H7         41.9190   78.8460   37.1890 H         1 DAS         0.0000 
     41 H8         44.4548   77.7167   42.2276 H         1 DAS         0.0000 
     42 H9         43.9056   76.0408   41.8863 H         1 DAS         0.0000 
     43 H10        42.7791   77.2190   42.6409 H         1 DAS         0.0000 
     44 H11        40.4359   75.2044   39.6456 H         1 DAS         0.0000 
     45 H12        38.8356   75.8792   39.1870 H         1 DAS         0.0000 
     46 H13        38.8701   77.4837   37.0479 H         1 DAS         0.0000 
     47 H14        40.4977   77.9788   36.4715 H         1 DAS         0.0000 
     48 H15        40.2576   73.6141   35.1561 H         1 DAS         0.0000 
     49 H16        38.8856   72.8102   35.9915 H         1 DAS         0.0000 
     50 H17        39.0101   73.9996   33.3503 H         1 DAS         0.0000 
     51 H18        37.7245   72.9962   34.1032 H         1 DAS         0.0000 
     52 H19        43.6592   80.4849   37.2699 H         1 DAS         0.0000 
     53 H20        48.2185   84.3520   40.2962 H         1 DAS         0.0000 
     54 H21        49.7480   85.6530   44.9790 H         1 DAS         0.0000 
     55 H22        38.8860   73.7198   38.2371 H         1 DAS         0.0000 
     56 H23        40.5905   73.8981   37.6989 H         1 DAS         0.0000 
     57 H24        40.9486   75.6672   35.7059 H         1 DAS         0.0000 
     58 H25        39.4447   76.2964   34.9517 H         1 DAS         0.0000 
     59 H26        36.8323   75.2264   33.4096 H         1 DAS         0.0000 
@<TRIPOS>BOND
     1    1    2 2    
     2    1   20 1    
     3    1   34 1    
     4    2    3 1    
     5    2   21 1    
     6    3   22 am   BACKBONE|DICT|INTERRES
     7    3   27 2    
     8    4   16 1    
     9    4   31 1    
    10    4   32 1    
    11    5    6 ar   
    12    5   25 ar   
    13    5   35 1    
    14    6    7 ar   
    15    6   36 1    
    16    7    8 1    
    17    7   23 ar   
    18    8   37 1    
    19    8   38 1    
    20    8   39 1    
    21    9   10 ar   
    22    9   18 1    
    23    9   29 ar   
    24   10   11 ar   
    25   10   40 1    
    26   11   28 ar   
    27   11   30 1    
    28   12   13 1    
    29   12   28 ar   
    30   12   29 ar   
    31   13   41 1    
    32   13   42 1    
    33   13   43 1    
    34   14   30 1    
    35   14   31 1    
    36   14   44 1    
    37   14   45 1    
    38   15   30 1    
    39   15   32 1    
    40   15   46 1    
    41   15   47 1    
    42   16   17 1    
    43   16   48 1    
    44   16   49 1    
    45   17   33 1    
    46   17   50 1    
    47   17   51 1    
    48   18   19 1    
    49   18   52 1    
    50   19   20 2    
    51   19   21 1    
    52   22   23 1    
    53   22   53 1    
    54   23   24 ar   
    55   24   25 ar   
    56   24   26 1    
    57   25   54 1    
    58   31   55 1    
    59   31   56 1    
    60   32   57 1    
    61   32   58 1    
    62   33   59 1    
@<TRIPOS>SUBSTRUCTURE
     1 DAS         1 GROUP             0       ****    0 ROOT    
@<TRIPOS>MOLECULE
1N1
60   63    1
SMALL
USER_CHARGES


@<TRIPOS>ATOM
      1 C1         46.6110   82.6200   38.8410 C.2       1 DAS         0.0000 
      2 C2         46.7750   82.0670   40.0440 C.2       1 DAS         0.0000 
      3 C3         47.6870   82.4940   41.1480 C.2       1 DAS         0.0000 
      4 N1         39.1540   74.8480   36.4620 N.3       1 DAS         0.0000 
      5 C4         51.3280   84.7110   43.8460 C.ar      1 DAS         0.0000 
      6 C5         51.6490   83.9220   42.7330 C.ar      1 DAS         0.0000 
      7 C6         50.6600   83.5350   41.8220 C.ar      1 DAS         0.0000 
      8 C7         51.0540   82.7460   40.6060 C.3       1 DAS         0.0000 
      9 C8         43.3450   79.0450   38.8240 C.ar      1 DAS         0.0000 
     10 C9         42.2600   78.4660   38.1410 C.ar      1 DAS         0.0000 
     11 C10        41.6410   77.3640   38.7640 C.ar      1 DAS         0.0000 
     12 C11        43.1380   77.5250   40.5610 C.ar      1 DAS         0.0000 
     13 C12        43.6000   77.0970   41.9190 C.3       1 DAS         0.0000 
     14 C13        39.8200   75.5660   38.8090 C.3       1 DAS         0.0000 
     15 C14        39.9050   77.1490   36.8840 C.3       1 DAS         0.0000 
     16 C15        39.2210   73.7370   35.5030 C.3       1 DAS         0.0000 
     17 C16        38.3550   73.8890   34.2270 C.3       1 DAS         0.0000 
     18 N2         43.9770   80.1180   38.2570 N.pl3     1 DAS         0.0000 
     19 C17        45.0120   80.8680   38.7420 C.2       1 DAS         0.0000 
     20 N3         45.5400   81.9390   38.1020 N.2       1 DAS         0.0000 
     21 S1         45.8120   80.6770   40.2960 S.3       1 DAS         0.0000 
     22 N4         48.3930   83.6260   41.1040 N.am      1 DAS         0.0000 
     23 C18        49.3330   83.9150   42.0370 C.ar      1 DAS         0.0000 
     24 C19        49.0210   84.6530   43.2010 C.ar      1 DAS         0.0000 
     25 C20        50.0050   85.0710   44.1070 C.ar      1 DAS         0.0000 
     26 Cl1        47.3940   85.0560   43.5890 Cl        1 DAS         0.0000 
     27 O1         47.7260   81.7050   42.0920 O.2       1 DAS         0.0000 
     28 N5         42.0970   76.9050   39.9750 N.ar      1 DAS         0.0000 
     29 N6         43.7640   78.5580   40.0120 N.pl3     1 DAS         0.0000 
     30 N7         40.4900   76.7170   38.1650 N.pl3     1 DAS         0.0000 
     31 C21        39.6220   74.4100   37.7990 C.3       1 DAS         0.0000 
     32 C22        39.9110   75.9790   35.8960 C.3       1 DAS         0.0000 
     33 O2         37.4960   75.0150   34.2610 O.3       1 DAS         0.0000 
     34 H1         47.1860   83.4530   38.4630 H         1 DAS         0.0000 
     35 H2         52.1130   85.0440   44.5090 H         1 DAS         0.0000 
     36 H3         52.6710   83.6090   42.5770 H         1 DAS         0.0000 
     37 H4         50.1593   82.5287   40.0042 H         1 DAS         0.0000 
     38 H5         51.5242   81.8018   40.9181 H         1 DAS         0.0000 
     39 H6         51.7671   83.3298   40.0053 H         1 DAS         0.0000 
     40 H7         41.9190   78.8460   37.1890 H         1 DAS         0.0000 
     41 H8         44.4548   77.7167   42.2276 H         1 DAS         0.0000 
     42 H9         43.9056   76.0408   41.8863 H         1 DAS         0.0000 
     43 H10        42.7791   77.2190   42.6409 H         1 DAS         0.0000 
     44 H11        40.4359   75.2044   39.6456 H         1 DAS         0.0000 
     45 H12        38.8356   75.8792   39.1870 H         1 DAS         0.0000 
     46 H13        38.8701   77.4837   37.0479 H         1 DAS         0.0000 
     47 H14        40.4977   77.9788   36.4715 H         1 DAS         0.0000 
     48 H15        40.2576   73.6141   35.1561 H         1 DAS         0.0000 
     49 H16        38.8856   72.8102   35.9915 H         1 DAS         0.0000 
     50 H17        39.0101   73.9996   33.3503 H         1 DAS         0.0000 
     51 H18        37.7245   72.9962   34.1032 H         1 DAS         0.0000 
     52 H19        43.6592   80.4849   37.2699 H         1 DAS         0.0000 
     53 H20        48.2185   84.3520   40.2962 H         1 DAS         0.0000 
     54 H21        49.7480   85.6530   44.9790 H         1 DAS         0.0000 
     55 H22        38.8860   73.7198   38.2371 H         1 DAS         0.0000 
     56 H23        40.5905   73.8981   37.6989 H         1 DAS         0.0000 
     57 H24        40.9486   75.6672   35.7059 H         1 DAS         0.0000 
     58 H25        39.4447   76.2964   34.9517 H         1 DAS         0.0000 
     59 H26        36.8323   75.2264   33.4096 H         1 DAS         0.0000 
     60 H60        44.6229   79.0177   40.5228 H         1 DAS         0.0000 
@<TRIPOS>BOND
     1    1    2 2    
     2    1   20 1    
     3    1   34 1    
     4    2    3 1    
     5    2   21 1    
     6    3   22 am   BACKBONE|DICT|INTERRES
     7    3   27 2    
     8    4   16 1    
     9    4   31 1    
    10    4   32 1    
    11    5    6 ar   
    12    5   25 ar   
    13    5   35 1    
    14    6    7 ar   
    15    6   36 1    
    16    7    8 1    
    17    7   23 ar   
    18    8   37 1    
    19    8   38 1    
    20    8   39 1    
    21    9   10 ar   
    22    9   18 1    
    23    9   29 ar   
    24   10   11 ar   
    25   10   40 1    
    26   11   28 ar   
    27   11   30 1    
    28   12   13 1    
    29   12   28 ar   
    30   12   29 ar   
    31   13   41 1    
    32   13   42 1    
    33   13   43 1    
    34   14   30 1    
    35   14   31 1    
    36   14   44 1    
    37   14   45 1    
    38   15   30 1    
    39   15   32 1    
    40   15   46 1    
    41   15   47 1    
    42   16   17 1    
    43   16   48 1    
    44   16   49 1    
    45   17   33 1    
    46   17   50 1    
    47   17   51 1    
    48   18   19 1    
    49   18   52 1    
    50   19   20 2    
    51   19   21 1    
    52   22   23 1    
    53   22   53 1    
    54   23   24 ar   
    55   24   25 ar   
    56   24   26 1    
    57   25   54 1    
    58   29   60 1    
    59   31   55 1    
    60   31   56 1    
    61   32   57 1    
    62   32   58 1    
    63   33   59 1    
@<TRIPOS>SUBSTRUCTURE
     1 DAS         1 GROUP             0       ****    0 ROOT    
@<TRIPOS>MOLECULE
1N1
59   62    1
SMALL
USER_CHARGES


@<TRIPOS>ATOM
      1 C1         46.6110   82.6200   38.8410 C.2       1 DAS         0.0000 
      2 C2         46.7750   82.0670   40.0440 C.2       1 DAS         0.0000 
      3 C3         47.6870   82.4940   41.1480 C.2       1 DAS         0.0000 
      4 N1         39.1540   74.8480   36.4620 N.3       1 DAS         0.0000 
      5 C4         51.3280   84.7110   43.8460 C.ar      1 DAS         0.0000 
      6 C5         51.6490   83.9220   42.7330 C.ar      1 DAS         0.0000 
      7 C6         50.6600   83.5350   41.8220 C.ar      1 DAS         0.0000 
      8 C7         51.0540   82.7460   40.6060 C.3       1 DAS         0.0000 
      9 C8         43.3450   79.0450   38.8240 C.ar      1 DAS         0.0000 
     10 C9         42.2600   78.4660   38.1410 C.ar      1 DAS         0.0000 
     11 C10        41.6410   77.3640   38.7640 C.ar      1 DAS         0.0000 
     12 C11        43.1380   77.5250   40.5610 C.ar      1 DAS         0.0000 
     13 C12        43.6000   77.0970   41.9190 C.3       1 DAS         0.0000 
     14 C13        39.8200   75.5660   38.8090 C.3       1 DAS         0.0000 
     15 C14        39.9050   77.1490   36.8840 C.3       1 DAS         0.0000 
     16 C15        39.2210   73.7370   35.5030 C.3       1 DAS         0.0000 
     17 C16        38.3550   73.8890   34.2270 C.3       1 DAS         0.0000 
     18 N2         43.9770   80.1180   38.2570 N.pl3     1 DAS         0.0000 
     19 C17        45.0120   80.8680   38.7420 C.2       1 DAS         0.0000 
     20 N3         45.5400   81.9390   38.1020 N.2       1 DAS         0.0000 
     21 S1         45.8120   80.6770   40.2960 S.3       1 DAS         0.0000 
     22 N4         48.3930   83.6260   41.1040 N.2       1 DAS         0.0000 
     23 C18        49.3330   83.9150   42.0370 C.ar      1 DAS         0.0000 
     24 C19        49.0210   84.6530   43.2010 C.ar      1 DAS         0.0000 
     25 C20        50.0050   85.0710   44.1070 C.ar      1 DAS         0.0000 
     26 Cl1        47.3940   85.0560   43.5890 Cl        1 DAS         0.0000 
     27 O1         47.7260   81.7050   42.0920 O.co2     1 DAS         0.0000 
     28 N5         42.0970   76.9050   39.9750 N.ar      1 DAS         0.0000 
     29 N6         43.7640   78.5580   40.0120 N.pl3     1 DAS         0.0000 
     30 N7         40.4900   76.7170   38.1650 N.pl3     1 DAS         0.0000 
     31 C21        39.6220   74.4100   37.7990 C.3       1 DAS         0.0000 
     32 C22        39.9110   75.9790   35.8960 C.3       1 DAS         0.0000 
     33 O2         37.4960   75.0150   34.2610 O.3       1 DAS         0.0000 
     34 H1         47.1860   83.4530   38.4630 H         1 DAS         0.0000 
     35 H2         52.1130   85.0440   44.5090 H         1 DAS         0.0000 
     36 H3         52.6710   83.6090   42.5770 H         1 DAS         0.0000 
     37 H4         50.1593   82.5287   40.0042 H         1 DAS         0.0000 
     38 H5         51.5242   81.8018   40.9181 H         1 DAS         0.0000 
     39 H6         51.7671   83.3298   40.0053 H         1 DAS         0.0000 
     40 H7         41.9190   78.8460   37.1890 H         1 DAS         0.0000 
     41 H8         44.4548   77.7167   42.2276 H         1 DAS         0.0000 
     42 H9         43.9056   76.0408   41.8863 H         1 DAS         0.0000 
     43 H10        42.7791   77.2190   42.6409 H         1 DAS         0.0000 
     44 H11        40.4359   75.2044   39.6456 H         1 DAS         0.0000 
     45 H12        38.8356   75.8792   39.1870 H         1 DAS         0.0000 
     46 H13        38.8701   77.4837   37.0479 H         1 DAS         0.0000 
     47 H14        40.4977   77.9788   36.4715 H         1 DAS         0.0000 
     48 H15        40.2576   73.6141   35.1561 H         1 DAS         0.0000 
     49 H16        38.8856   72.8102   35.9915 H         1 DAS         0.0000 
     50 H17        39.0101   73.9996   33.3503 H         1 DAS         0.0000 
     51 H18        37.7245   72.9962   34.1032 H         1 DAS         0.0000 
     52 H19        43.6592   80.4849   37.2699 H         1 DAS         0.0000 
     53 H21        49.7480   85.6530   44.9790 H         1 DAS         0.0000 
     54 H22        38.8860   73.7198   38.2371 H         1 DAS         0.0000 
     55 H23        40.5905   73.8981   37.6989 H         1 DAS         0.0000 
     56 H24        40.9486   75.6672   35.7059 H         1 DAS         0.0000 
     57 H25        39.4447   76.2964   34.9517 H         1 DAS         0.0000 
     58 H26        36.8323   75.2264   33.4096 H         1 DAS         0.0000 
     59 H59        44.6229   79.0177   40.5228 H         1 DAS         0.0000 
@<TRIPOS>BOND
     1    1    2 2    
     2    1   20 1    
     3    1   34 1    
     4    2    3 1    
     5    2   21 1    
     6    3   22 2    
     7    3   27 1    
     8    4   16 1    
     9    4   31 1    
    10    4   32 1    
    11    5    6 ar   
    12    5   25 ar   
    13    5   35 1    
    14    6    7 ar   
    15    6   36 1    
    16    7    8 1    
    17    7   23 ar   
    18    8   37 1    
    19    8   38 1    
    20    8   39 1    
    21    9   10 ar   
    22    9   18 1    
    23    9   29 ar   
    24   10   11 ar   
    25   10   40 1    
    26   11   28 ar   
    27   11   30 1    
    28   12   13 1    
    29   12   28 ar   
    30   12   29 ar   
    31   13   41 1    
    32   13   42 1    
    33   13   43 1    
    34   14   30 1    
    35   14   31 1    
    36   14   44 1    
    37   14   45 1    
    38   15   30 1    
    39   15   32 1    
    40   15   46 1    
    41   15   47 1    
    42   16   17 1    
    43   16   48 1    
    44   16   49 1    
    45   17   33 1    
    46   17   50 1    
    47   17   51 1    
    48   18   19 1    
    49   18   52 1    
    50   19   20 2    
    51   19   21 1    
    52   22   23 1    
    53   23   24 ar   
    54   24   25 ar   
    55   24   26 1    
    56   25   53 1    
    57   29   59 1    
    58   31   54 1    
    59   31   55 1    
    60   32   56 1    
    61   32   57 1    
    62   33   58 1    
@<TRIPOS>SUBSTRUCTURE
     1 DAS         1 GROUP             0       ****    0 ROOT    
@<TRIPOS>MOLECULE
1N1
60   63    1
SMALL
USER_CHARGES


@<TRIPOS>ATOM
      1 C1         46.6110   82.6200   38.8410 C.2       1 DAS         0.0000 
      2 C2         46.7750   82.0670   40.0440 C.2       1 DAS         0.0000 
      3 C3         47.6870   82.4940   41.1480 C.2       1 DAS         0.0000 
      4 N1         39.1540   74.8480   36.4620 N.4       1 DAS         0.0000 
      5 C4         51.3280   84.7110   43.8460 C.ar      1 DAS         0.0000 
      6 C5         51.6490   83.9220   42.7330 C.ar      1 DAS         0.0000 
      7 C6         50.6600   83.5350   41.8220 C.ar      1 DAS         0.0000 
      8 C7         51.0540   82.7460   40.6060 C.3       1 DAS         0.0000 
      9 C8         43.3450   79.0450   38.8240 C.ar      1 DAS         0.0000 
     10 C9         42.2600   78.4660   38.1410 C.ar      1 DAS         0.0000 
     11 C10        41.6410   77.3640   38.7640 C.ar      1 DAS         0.0000 
     12 C11        43.1380   77.5250   40.5610 C.ar      1 DAS         0.0000 
     13 C12        43.6000   77.0970   41.9190 C.3       1 DAS         0.0000 
     14 C13        39.8200   75.5660   38.8090 C.3       1 DAS         0.0000 
     15 C14        39.9050   77.1490   36.8840 C.3       1 DAS         0.0000 
     16 C15        39.2210   73.7370   35.5030 C.3       1 DAS         0.0000 
     17 C16        38.3550   73.8890   34.2270 C.3       1 DAS         0.0000 
     18 N2         43.9770   80.1180   38.2570 N.pl3     1 DAS         0.0000 
     19 C17        45.0120   80.8680   38.7420 C.2       1 DAS         0.0000 
     20 N3         45.5400   81.9390   38.1020 N.2       1 DAS         0.0000 
     21 S1         45.8120   80.6770   40.2960 S.3       1 DAS         0.0000 
     22 N4         48.3930   83.6260   41.1040 N.am      1 DAS         0.0000 
     23 C18        49.3330   83.9150   42.0370 C.ar      1 DAS         0.0000 
     24 C19        49.0210   84.6530   43.2010 C.ar      1 DAS         0.0000 
     25 C20        50.0050   85.0710   44.1070 C.ar      1 DAS         0.0000 
     26 Cl1        47.3940   85.0560   43.5890 Cl        1 DAS         0.0000 
     27 O1         47.7260   81.7050   42.0920 O.2       1 DAS         0.0000 
     28 N5         42.0970   76.9050   39.9750 N.ar      1 DAS         0.0000 
     29 N6         43.7640   78.5580   40.0120 N.ar      1 DAS         0.0000 
     30 N7         40.4900   76.7170   38.1650 N.pl3     1 DAS         0.0000 
     31 C21        39.6220   74.4100   37.7990 C.3       1 DAS         0.0000 
     32 C22        39.9110   75.9790   35.8960 C.3       1 DAS         0.0000 
     33 O2         37.4960   75.0150   34.2610 O.3       1 DAS         0.0000 
     34 H1         47.1860   83.4530   38.4630 H         1 DAS         0.0000 
     35 H2         52.1130   85.0440   44.5090 H         1 DAS         0.0000 
     36 H3         52.6710   83.6090   42.5770 H         1 DAS         0.0000 
     37 H4         50.1593   82.5287   40.0042 H         1 DAS         0.0000 
     38 H5         51.5242   81.8018   40.9181 H         1 DAS         0.0000 
     39 H6         51.7671   83.3298   40.0053 H         1 DAS         0.0000 
     40 H7         41.9190   78.8460   37.1890 H         1 DAS         0.0000 
     41 H8         44.4548   77.7167   42.2276 H         1 DAS         0.0000 
     42 H9         43.9056   76.0408   41.8863 H         1 DAS         0.0000 
     43 H10        42.7791   77.2190   42.6409 H         1 DAS         0.0000 
     44 H11        40.4359   75.2044   39.6456 H         1 DAS         0.0000 
     45 H12        38.8356   75.8792   39.1870 H         1 DAS         0.0000 
     46 H13        38.8701   77.4837   37.0479 H         1 DAS         0.0000 
     47 H14        40.4977   77.9788   36.4715 H         1 DAS         0.0000 
     48 H15        40.2576   73.6141   35.1561 H         1 DAS         0.0000 
     49 H16        38.8856   72.8102   35.9915 H         1 DAS         0.0000 
     50 H17        39.0101   73.9996   33.3503 H         1 DAS         0.0000 
     51 H18        37.7245   72.9962   34.1032 H         1 DAS         0.0000 
     52 H19        43.6592   80.4849   37.2699 H         1 DAS         0.0000 
     53 H20        48.2185   84.3520   40.2962 H         1 DAS         0.0000 
     54 H21        49.7480   85.6530   44.9790 H         1 DAS         0.0000 
     55 H22        38.8860   73.7198   38.2371 H         1 DAS         0.0000 
     56 H23        40.5905   73.8981   37.6989 H         1 DAS         0.0000 
     57 H24        40.9486   75.6672   35.7059 H         1 DAS         0.0000 
     58 H25        39.4447   76.2964   34.9517 H         1 DAS         0.0000 
     59 H26        36.8323   75.2264   33.4096 H         1 DAS         0.0000 
     60 H60        38.1173   75.1834   36.6129 H         1 DAS         0.0000 
@<TRIPOS>BOND
     1    1    2 2    
     2    1   20 1    
     3    1   34 1    
     4    2    3 1    
     5    2   21 1    
     6    3   22 am   BACKBONE|DICT|INTERRES
     7    3   27 2    
     8    4   16 1    
     9    4   31 1    
    10    4   32 1    
    11    4   60 1    
    12    5    6 ar   
    13    5   25 ar   
    14    5   35 1    
    15    6    7 ar   
    16    6   36 1    
    17    7    8 1    
    18    7   23 ar   
    19    8   37 1    
    20    8   38 1    
    21    8   39 1    
    22    9   10 ar   
    23    9   18 1    
    24    9   29 ar   
    25   10   11 ar   
    26   10   40 1    
    27   11   28 ar   
    28   11   30 1    
    29   12   13 1    
    30   12   28 ar   
    31   12   29 ar   
    32   13   41 1    
    33   13   42 1    
    34   13   43 1    
    35   14   30 1    
    36   14   31 1    
    37   14   44 1    
    38   14   45 1    
    39   15   30 1    
    40   15   32 1    
    41   15   46 1    
    42   15   47 1    
    43   16   17 1    
    44   16   48 1    
    45   16   49 1    
    46   17   33 1    
    47   17   50 1    
    48   17   51 1    
    49   18   19 1    
    50   18   52 1    
    51   19   20 2    
    52   19   21 1    
    53   22   23 1    
    54   22   53 1    
    55   23   24 ar   
    56   24   25 ar   
    57   24   26 1    
    58   25   54 1    
    59   31   55 1    
    60   31   56 1    
    61   32   57 1    
    62   32   58 1    
    63   33   59 1    
@<TRIPOS>SUBSTRUCTURE
     1 DAS         1 GROUP             0       ****    0 ROOT    
@<TRIPOS>MOLECULE
1N1
58   61    1
SMALL
USER_CHARGES


@<TRIPOS>ATOM
      1 C1         46.6110   82.6200   38.8410 C.2       1 DAS         0.0000 
      2 C2         46.7750   82.0670   40.0440 C.2       1 DAS         0.0000 
      3 C3         47.6870   82.4940   41.1480 C.2       1 DAS         0.0000 
      4 N1         39.1540   74.8480   36.4620 N.3       1 DAS         0.0000 
      5 C4         51.3280   84.7110   43.8460 C.ar      1 DAS         0.0000 
      6 C5         51.6490   83.9220   42.7330 C.ar      1 DAS         0.0000 
      7 C6         50.6600   83.5350   41.8220 C.ar      1 DAS         0.0000 
      8 C7         51.0540   82.7460   40.6060 C.3       1 DAS         0.0000 
      9 C8         43.3450   79.0450   38.8240 C.ar      1 DAS         0.0000 
     10 C9         42.2600   78.4660   38.1410 C.ar      1 DAS         0.0000 
     11 C10        41.6410   77.3640   38.7640 C.ar      1 DAS         0.0000 
     12 C11        43.1380   77.5250   40.5610 C.ar      1 DAS         0.0000 
     13 C12        43.6000   77.0970   41.9190 C.3       1 DAS         0.0000 
     14 C13        39.8200   75.5660   38.8090 C.3       1 DAS         0.0000 
     15 C14        39.9050   77.1490   36.8840 C.3       1 DAS         0.0000 
     16 C15        39.2210   73.7370   35.5030 C.3       1 DAS         0.0000 
     17 C16        38.3550   73.8890   34.2270 C.3       1 DAS         0.0000 
     18 N2         43.9770   80.1180   38.2570 N.pl3     1 DAS         0.0000 
     19 C17        45.0120   80.8680   38.7420 C.2       1 DAS         0.0000 
     20 N3         45.5400   81.9390   38.1020 N.2       1 DAS         0.0000 
     21 S1         45.8120   80.6770   40.2960 S.3       1 DAS         0.0000 
     22 N4         48.3930   83.6260   41.1040 N.2       1 DAS         0.0000 
     23 C18        49.3330   83.9150   42.0370 C.ar      1 DAS         0.0000 
     24 C19        49.0210   84.6530   43.2010 C.ar      1 DAS         0.0000 
     25 C20        50.0050   85.0710   44.1070 C.ar      1 DAS         0.0000 
     26 Cl1        47.3940   85.0560   43.5890 Cl        1 DAS         0.0000 
     27 O1         47.7260   81.7050   42.0920 O.co2     1 DAS         0.0000 
     28 N5         42.0970   76.9050   39.9750 N.ar      1 DAS         0.0000 
     29 N6         43.7640   78.5580   40.0120 N.ar      1 DAS         0.0000 
     30 N7         40.4900   76.7170   38.1650 N.pl3     1 DAS         0.0000 
     31 C21        39.6220   74.4100   37.7990 C.3       1 DAS         0.0000 
     32 C22        39.9110   75.9790   35.8960 C.3       1 DAS         0.0000 
     33 O2         37.4960   75.0150   34.2610 O.3       1 DAS         0.0000 
     34 H1         47.1860   83.4530   38.4630 H         1 DAS         0.0000 
     35 H2         52.1130   85.0440   44.5090 H         1 DAS         0.0000 
     36 H3         52.6710   83.6090   42.5770 H         1 DAS         0.0000 
     37 H4         50.1593   82.5287   40.0042 H         1 DAS         0.0000 
     38 H5         51.5242   81.8018   40.9181 H         1 DAS         0.0000 
     39 H6         51.7671   83.3298   40.0053 H         1 DAS         0.0000 
     40 H7         41.9190   78.8460   37.1890 H         1 DAS         0.0000 
     41 H8         44.4548   77.7167   42.2276 H         1 DAS         0.0000 
     42 H9         43.9056   76.0408   41.8863 H         1 DAS         0.0000 
     43 H10        42.7791   77.2190   42.6409 H         1 DAS         0.0000 
     44 H11        40.4359   75.2044   39.6456 H         1 DAS         0.0000 
     45 H12        38.8356   75.8792   39.1870 H         1 DAS         0.0000 
     46 H13        38.8701   77.4837   37.0479 H         1 DAS         0.0000 
     47 H14        40.4977   77.9788   36.4715 H         1 DAS         0.0000 
     48 H15        40.2576   73.6141   35.1561 H         1 DAS         0.0000 
     49 H16        38.8856   72.8102   35.9915 H         1 DAS         0.0000 
     50 H17        39.0101   73.9996   33.3503 H         1 DAS         0.0000 
     51 H18        37.7245   72.9962   34.1032 H         1 DAS         0.0000 
     52 H19        43.6592   80.4849   37.2699 H         1 DAS         0.0000 
     53 H21        49.7480   85.6530   44.9790 H         1 DAS         0.0000 
     54 H22        38.8860   73.7198   38.2371 H         1 DAS         0.0000 
     55 H23        40.5905   73.8981   37.6989 H         1 DAS         0.0000 
     56 H24        40.9486   75.6672   35.7059 H         1 DAS         0.0000 
     57 H25        39.4447   76.2964   34.9517 H         1 DAS         0.0000 
     58 H26        36.8323   75.2264   33.4096 H         1 DAS         0.0000 
@<TRIPOS>BOND
     1    1    2 2    
     2    1   20 1    
     3    1   34 1    
     4    2    3 1    
     5    2   21 1    
     6    3   22 2    
     7    3   27 1    
     8    4   16 1    
     9    4   31 1    
    10    4   32 1    
    11    5    6 ar   
    12    5   25 ar   
    13    5   35 1    
    14    6    7 ar   
    15    6   36 1    
    16    7    8 1    
    17    7   23 ar   
    18    8   37 1    
    19    8   38 1    
    20    8   39 1    
    21    9   10 ar   
    22    9   18 1    
    23    9   29 ar   
    24   10   11 ar   
    25   10   40 1    
    26   11   28 ar   
    27   11   30 1    
    28   12   13 1    
    29   12   28 ar   
    30   12   29 ar   
    31   13   41 1    
    32   13   42 1    
    33   13   43 1    
    34   14   30 1    
    35   14   31 1    
    36   14   44 1    
    37   14   45 1    
    38   15   30 1    
    39   15   32 1    
    40   15   46 1    
    41   15   47 1    
    42   16   17 1    
    43   16   48 1    
    44   16   49 1    
    45   17   33 1    
    46   17   50 1    
    47   17   51 1    
    48   18   19 1    
    49   18   52 1    
    50   19   20 2    
    51   19   21 1    
    52   22   23 1    
    53   23   24 ar   
    54   24   25 ar   
    55   24   26 1    
    56   25   53 1    
    57   31   54 1    
    58   31   55 1    
    59   32   56 1    
    60   32   57 1    
    61   33   58 1    
@<TRIPOS>SUBSTRUCTURE
     1 DAS         1 GROUP             0       ****    0 ROOT    
@<TRIPOS>MOLECULE
1N1
61   64    1
SMALL
USER_CHARGES


@<TRIPOS>ATOM
      1 C1         46.6110   82.6200   38.8410 C.cat     1 DAS         0.0000 
      2 C2         46.7750   82.0670   40.0440 C.2       1 DAS         0.0000 
      3 C3         47.6870   82.4940   41.1480 C.2       1 DAS         0.0000 
      4 N1         39.1540   74.8480   36.4620 N.3       1 DAS         0.0000 
      5 C4         51.3280   84.7110   43.8460 C.ar      1 DAS         0.0000 
      6 C5         51.6490   83.9220   42.7330 C.ar      1 DAS         0.0000 
      7 C6         50.6600   83.5350   41.8220 C.ar      1 DAS         0.0000 
      8 C7         51.0540   82.7460   40.6060 C.3       1 DAS         0.0000 
      9 C8         43.3450   79.0450   38.8240 C.ar      1 DAS         0.0000 
     10 C9         42.2600   78.4660   38.1410 C.ar      1 DAS         0.0000 
     11 C10        41.6410   77.3640   38.7640 C.ar      1 DAS         0.0000 
     12 C11        43.1380   77.5250   40.5610 C.ar      1 DAS         0.0000 
     13 C12        43.6000   77.0970   41.9190 C.3       1 DAS         0.0000 
     14 C13        39.8200   75.5660   38.8090 C.3       1 DAS         0.0000 
     15 C14        39.9050   77.1490   36.8840 C.3       1 DAS         0.0000 
     16 C15        39.2210   73.7370   35.5030 C.3       1 DAS         0.0000 
     17 C16        38.3550   73.8890   34.2270 C.3       1 DAS         0.0000 
     18 N2         43.9770   80.1180   38.2570 N.pl3     1 DAS         0.0000 
     19 C17        45.0120   80.8680   38.7420 C.cat     1 DAS         0.0000 
     20 N3         45.5400   81.9390   38.1020 N.pl3     1 DAS         0.0000 
     21 S1         45.8120   80.6770   40.2960 S.3       1 DAS         0.0000 
     22 N4         48.3930   83.6260   41.1040 N.am      1 DAS         0.0000 
     23 C18        49.3330   83.9150   42.0370 C.ar      1 DAS         0.0000 
     24 C19        49.0210   84.6530   43.2010 C.ar      1 DAS         0.0000 
     25 C20        50.0050   85.0710   44.1070 C.ar      1 DAS         0.0000 
     26 Cl1        47.3940   85.0560   43.5890 Cl        1 DAS         0.0000 
     27 O1         47.7260   81.7050   42.0920 O.2       1 DAS         0.0000 
     28 N5         42.0970   76.9050   39.9750 N.pl3     1 DAS         0.0000 
     29 N6         43.7640   78.5580   40.0120 N.2       1 DAS         0.0000 
     30 N7         40.4900   76.7170   38.1650 N.pl3     1 DAS         0.0000 
     31 C21        39.6220   74.4100   37.7990 C.3       1 DAS         0.0000 
     32 C22        39.9110   75.9790   35.8960 C.3       1 DAS         0.0000 
     33 O2         37.4960   75.0150   34.2610 O.3       1 DAS         0.0000 
     34 H1         47.1860   83.4530   38.4630 H         1 DAS         0.0000 
     35 H2         52.1130   85.0440   44.5090 H         1 DAS         0.0000 
     36 H3         52.6710   83.6090   42.5770 H         1 DAS         0.0000 
     37 H4         50.1593   82.5287   40.0042 H         1 DAS         0.0000 
     38 H5         51.5242   81.8018   40.9181 H         1 DAS         0.0000 
     39 H6         51.7671   83.3298   40.0053 H         1 DAS         0.0000 
     40 H7         41.9190   78.8460   37.1890 H         1 DAS         0.0000 
     41 H8         44.4548   77.7167   42.2276 H         1 DAS         0.0000 
     42 H9         43.9056   76.0408   41.8863 H         1 DAS         0.0000 
     43 H10        42.7791   77.2190   42.6409 H         1 DAS         0.0000 
     44 H11        40.4359   75.2044   39.6456 H         1 DAS         0.0000 
     45 H12        38.8356   75.8792   39.1870 H         1 DAS         0.0000 
     46 H13        38.8701   77.4837   37.0479 H         1 DAS         0.0000 
     47 H14        40.4977   77.9788   36.4715 H         1 DAS         0.0000 
     48 H15        40.2576   73.6141   35.1561 H         1 DAS         0.0000 
     49 H16        38.8856   72.8102   35.9915 H         1 DAS         0.0000 
     50 H17        39.0101   73.9996   33.3503 H         1 DAS         0.0000 
     51 H18        37.7245   72.9962   34.1032 H         1 DAS         0.0000 
     52 H20        48.2185   84.3520   40.2962 H         1 DAS         0.0000 
     53 H21        49.7480   85.6530   44.9790 H         1 DAS         0.0000 
     54 H22        38.8860   73.7198   38.2371 H         1 DAS         0.0000 
     55 H23        40.5905   73.8981   37.6989 H         1 DAS         0.0000 
     56 H24        40.9486   75.6672   35.7059 H         1 DAS         0.0000 
     57 H25        39.4447   76.2964   34.9517 H         1 DAS         0.0000 
     58 H26        36.8323   75.2264   33.4096 H         1 DAS         0.0000 
     59 H59        45.2315   82.3105   37.1137 H         1 DAS         0.0000 
     60 H60        41.6125   76.0412   40.4536 H         1 DAS         0.0000 
     61 H61        43.6592   80.4849   37.2699 H         1 DAS         0.0000 
@<TRIPOS>BOND
     1    1    2 2    
     2    1   20 ar   
     3    1   34 1    
     4    2    3 1    
     5    2   21 1    
     6    3   22 am   BACKBONE|DICT|INTERRES
     7    3   27 2    
     8    4   16 1    
     9    4   31 1    
    10    4   32 1    
    11    5    6 ar   
    12    5   25 ar   
    13    5   35 1    
    14    6    7 ar   
    15    6   36 1    
    16    7    8 1    
    17    7   23 ar   
    18    8   37 1    
    19    8   38 1    
    20    8   39 1    
    21    9   10 ar   
    22    9   18 2    
    23    9   29 ar   
    24   10   11 ar   
    25   10   40 1    
    26   11   28 ar   
    27   11   30 1    
    28   12   13 1    
    29   12   28 ar   
    30   12   29 ar   
    31   13   41 1    
    32   13   42 1    
    33   13   43 1    
    34   14   30 1    
    35   14   31 1    
    36   14   44 1    
    37   14   45 1    
    38   15   30 1    
    39   15   32 1    
    40   15   46 1    
    41   15   47 1    
    42   16   17 1    
    43   16   48 1    
    44   16   49 1    
    45   17   33 1    
    46   17   50 1    
    47   17   51 1    
    48   18   19 ar   
    49   18   61 1    
    50   19   20 ar   
    51   19   21 1    
    52   20   59 1    
    53   22   23 1    
    54   22   52 1    
    55   23   24 ar   
    56   24   25 ar   
    57   24   26 1    
    58   25   53 1    
    59   28   60 1    
    60   31   54 1    
    61   31   55 1    
    62   32   56 1    
    63   32   57 1    
    64   33   58 1    
@<TRIPOS>SUBSTRUCTURE
     1 DAS         1 GROUP             0       ****    0 ROOT    
