@<TRIPOS>MOLECULE
~{N}4-methyl-~{N}4-(3-methyl-1~{H}-indazol-6-yl)-~{N}2-(3,4,5-trimethoxyphenyl)pyrimidine-2,4-diamine
   55    58     1     0     0
SMALL
USER_CHARGES

@<TRIPOS>ATOM
      1 N1          6.0200   41.7280    5.0700 N.pl3     1 KIM        -0.7409
      2 N3          7.1920   40.7770    6.9400 N.ar      1 KIM        -0.8049
      3 C4          7.0160   42.6060    4.5910 C.ar      1 KIM         0.1855
      4 C5          6.0660   40.9220    6.2230 C.ar      1 KIM         0.9133
      5 C6          4.9090   39.5540    7.5850 C.ar      1 KIM         0.4780
      6 C7          6.0050   39.3540    8.3730 C.ar      1 KIM        -0.4556
      7 C8          7.1710   39.9990    8.0230 C.ar      1 KIM         0.7289
      8 C10         8.5420   38.8350    9.7940 C.ar      1 KIM         0.1778
      9 C13         8.9390   36.8970   11.7100 C.ar      1 KIM        -0.2215
     10 C15         9.1260   34.8060   13.2690 C.3       1 KIM        -0.1041
     11 C17         9.1680   39.2020   10.9720 C.ar      1 KIM        -0.1769
     12 C20         6.6560   43.9040    0.7890 C.3       1 KIM         0.1184
     13 C21         8.9050   44.3410    3.5490 C.ar      1 KIM         0.0440
     14 C22        10.9060   44.3900    2.5140 C.3       1 KIM         0.1175
     15 C1          9.6190   44.7170    6.8690 C.3       1 KIM         0.1184
     16 O1         10.1100   44.2850    5.6000 O.3       1 KIM        -0.3387
     17 C2          9.0280   43.8810    4.8390 C.ar      1 KIM         0.1072
     18 C3          8.0900   43.0150    5.3570 C.ar      1 KIM        -0.1730
     19 N2          4.9060   40.3280    6.5070 N.ar      1 KIM        -0.7549
     20 N4          8.3270   39.8160    8.8150 N.pl3     1 KIM        -0.6834
     21 C9          9.4720   40.6740    8.5500 C.3       1 KIM         0.2132
     22 C11         8.1300   37.5310    9.5890 C.ar      1 KIM        -0.1696
     23 C12         8.3160   36.5390   10.5290 C.ar      1 KIM        -0.0483
     24 C14         9.3180   36.2230   12.9050 C.ar      1 KIM         0.3532
     25 N5          9.9200   37.0510   13.7630 N.ar      1 KIM        -0.4173
     26 N6          9.9280   38.2370   13.1340 N.pl3     1 KIM        -0.3988
     27 C16         9.3490   38.2030   11.8960 C.ar      1 KIM         0.0915
     28 C18         6.8950   43.0730    3.2980 C.ar      1 KIM        -0.1730
     29 C19         7.8370   43.9360    2.7820 C.ar      1 KIM         0.1072
     30 O2          7.7710   44.4330    1.4910 O.3       1 KIM        -0.3387
     31 O3          9.8580   45.2110    3.0320 O.3       1 KIM        -0.3343
     32 HN1         5.0736   41.6176    4.5204 H         1 KIM         0.4569
     33 H6          3.9910   39.0530    7.8540 H         1 KIM         0.0295
     34 H7          5.9600   38.7130    9.2410 H         1 KIM         0.1627
     35 H15         9.5415   34.6254   14.2714 H         1 KIM         0.0533
     36 H15A        9.6417   34.1664   12.5376 H         1 KIM         0.0533
     37 H15B        8.0516   34.5699   13.2694 H         1 KIM         0.0533
     38 H17         9.4950   40.2150   11.1540 H         1 KIM         0.1449
     39 H20         6.6339   44.3184   -0.2297 H         1 KIM         0.0428
     40 H20A        5.7290   44.1753    1.3154 H         1 KIM         0.0428
     41 H20B        6.7413   42.8085    0.7375 H         1 KIM         0.0428
     42 H22        11.6949   45.0276    2.0884 H         1 KIM         0.0453
     43 H22A       10.5030   43.7325    1.7297 H         1 KIM         0.0453
     44 H22B       11.3271   43.7778    3.3251 H         1 KIM         0.0453
     45 H1         10.4614   45.0446    7.4959 H         1 KIM         0.0428
     46 H1A         9.0966   43.8844    7.3628 H         1 KIM         0.0428
     47 H1B         8.9207   45.5548    6.7261 H         1 KIM         0.0428
     48 H3          8.1950   42.6530    6.3690 H         1 KIM         0.1601
     49 H9         10.2900   40.4171    9.2391 H         1 KIM         0.0476
     50 H9A         9.1844   41.7254    8.6981 H         1 KIM         0.0476
     51 H9B         9.8071   40.5281    7.5125 H         1 KIM         0.0476
     52 H11         7.6440   37.2800    8.6580 H         1 KIM         0.1477
     53 H12         7.9890   35.5250   10.3500 H         1 KIM         0.1414
     54 HN6        10.3739   39.1158   13.6228 H         1 KIM         0.4811
     55 H18         6.0600   42.7610    2.6890 H         1 KIM         0.1601
@<TRIPOS>BOND
     1    1    3 1
     2    1    4 1
     3    1   32 1
     4    2    4 ar
     5    2    7 ar
     6    3   18 ar
     7    3   28 ar
     8    4   19 ar
     9    5    6 ar
    10    5   19 ar
    11    5   33 1
    12    6    7 ar
    13    6   34 1
    14    7   20 1
    15    8   11 ar
    16    8   20 1
    17    8   22 ar
    18    9   23 ar
    19    9   24 ar
    20    9   27 ar
    21   10   24 1
    22   10   35 1
    23   10   36 1
    24   10   37 1
    25   11   27 ar
    26   11   38 1
    27   12   30 1
    28   12   39 1
    29   12   40 1
    30   12   41 1
    31   13   17 ar
    32   13   29 ar
    33   13   31 1
    34   14   31 1
    35   14   42 1
    36   14   43 1
    37   14   44 1
    38   15   16 1
    39   15   45 1
    40   15   46 1
    41   15   47 1
    42   16   17 1
    43   17   18 ar
    44   18   48 1
    45   20   21 1
    46   21   49 1
    47   21   50 1
    48   21   51 1
    49   22   23 ar
    50   22   52 1
    51   23   53 1
    52   24   25 ar
    53   25   26 ar
    54   26   27 ar
    55   26   54 1
    56   28   29 ar
    57   28   55 1
    58   29   30 1
@<TRIPOS>SUBSTRUCTURE
     1 KIM         1 GROUP   0 A     ****
@<TRIPOS>MOLECULE
~{N}4-methyl-~{N}4-(3-methyl-1~{H}-indazol-6-yl)-~{N}2-(3,4,5-trimethoxyphenyl)-1~{H}-pyrimidin-2-ylium-2,4-diamine
   56    59     1     0     0
SMALL
USER_CHARGES

@<TRIPOS>ATOM
      1 N1          6.0200   41.7280    5.0700 N.pl3     1 KIM        -0.6079
      2 N3          7.1920   40.7770    6.9400 N.ar      1 KIM        -0.7112
      3 C4          7.0160   42.6060    4.5910 C.ar      1 KIM         0.1078
      4 C5          6.0660   40.9220    6.2230 C.cat     1 KIM         0.6111
      5 C6          4.9090   39.5540    7.5850 C.ar      1 KIM         0.1373
      6 C7          6.0050   39.3540    8.3730 C.ar      1 KIM        -0.3464
      7 C8          7.1710   39.9990    8.0230 C.ar      1 KIM         0.7804
      8 C10         8.5420   38.8350    9.7940 C.ar      1 KIM         0.0893
      9 C13         8.9390   36.8970   11.7100 C.ar      1 KIM        -0.1951
     10 C15         9.1260   34.8060   13.2690 C.3       1 KIM        -0.1141
     11 C17         9.1680   39.2020   10.9720 C.ar      1 KIM        -0.1235
     12 C20         6.6560   43.9040    0.7890 C.3       1 KIM         0.1097
     13 C21         8.9050   44.3410    3.5490 C.ar      1 KIM         0.0840
     14 C22        10.9060   44.3900    2.5140 C.3       1 KIM         0.1151
     15 C1          9.6190   44.7170    6.8690 C.3       1 KIM         0.1097
     16 O1         10.1100   44.2850    5.6000 O.3       1 KIM        -0.3159
     17 C2          9.0280   43.8810    4.8390 C.ar      1 KIM         0.1379
     18 C3          8.0900   43.0150    5.3570 C.ar      1 KIM        -0.2082
     19 N2          4.9060   40.3280    6.5070 N.pl3     1 KIM        -0.6209
     20 N4          8.3270   39.8160    8.8150 N.pl3     1 KIM        -0.5577
     21 C9          9.4720   40.6740    8.5500 C.3       1 KIM         0.1921
     22 C11         8.1300   37.5310    9.5890 C.ar      1 KIM        -0.1643
     23 C12         8.3160   36.5390   10.5290 C.ar      1 KIM        -0.0404
     24 C14         9.3180   36.2230   12.9050 C.ar      1 KIM         0.3650
     25 N5          9.9200   37.0510   13.7630 N.ar      1 KIM        -0.3901
     26 N6          9.9280   38.2370   13.1340 N.pl3     1 KIM        -0.3821
     27 C16         9.3490   38.2030   11.8960 C.ar      1 KIM         0.0717
     28 C18         6.8950   43.0730    3.2980 C.ar      1 KIM        -0.2082
     29 C19         7.8370   43.9360    2.7820 C.ar      1 KIM         0.1379
     30 O2          7.7710   44.4330    1.4910 O.3       1 KIM        -0.3159
     31 O3          9.8580   45.2110    3.0320 O.3       1 KIM        -0.3117
     32 HN1         5.0736   41.6176    4.5204 H         1 KIM         0.4955
     33 H6          3.9910   39.0530    7.8540 H         1 KIM         0.1996
     34 H7          5.9600   38.7130    9.2410 H         1 KIM         0.2020
     35 H15         9.5415   34.6254   14.2714 H         1 KIM         0.0637
     36 H15A        9.6417   34.1664   12.5376 H         1 KIM         0.0637
     37 H15B        8.0516   34.5699   13.2694 H         1 KIM         0.0637
     38 H17         9.4950   40.2150   11.1540 H         1 KIM         0.1558
     39 H20         6.6339   44.3184   -0.2297 H         1 KIM         0.0561
     40 H20A        5.7290   44.1753    1.3154 H         1 KIM         0.0561
     41 H20B        6.7413   42.8085    0.7375 H         1 KIM         0.0561
     42 H22        11.6949   45.0276    2.0884 H         1 KIM         0.0529
     43 H22A       10.5030   43.7325    1.7297 H         1 KIM         0.0529
     44 H22B       11.3271   43.7778    3.3251 H         1 KIM         0.0529
     45 H1         10.4614   45.0446    7.4959 H         1 KIM         0.0561
     46 H1A         9.0966   43.8844    7.3628 H         1 KIM         0.0561
     47 H1B         8.9207   45.5548    6.7261 H         1 KIM         0.0561
     48 H3          8.1950   42.6530    6.3690 H         1 KIM         0.1574
     49 H9         10.2900   40.4171    9.2391 H         1 KIM         0.0725
     50 H9A         9.1844   41.7254    8.6981 H         1 KIM         0.0725
     51 H9B         9.8071   40.5281    7.5125 H         1 KIM         0.0725
     52 H11         7.6440   37.2800    8.6580 H         1 KIM         0.1490
     53 H12         7.9890   35.5250   10.3500 H         1 KIM         0.1600
     54 HN6        10.3739   39.1158   13.6228 H         1 KIM         0.4877
     55 H18         6.0600   42.7610    2.6890 H         1 KIM         0.1574
     56 H56         4.0299   40.4962    5.8635 H         1 KIM         0.4965
@<TRIPOS>BOND
     1    1    3 1
     2    1    4 1
     3    1   32 1
     4    2    4 ar
     5    2    7 ar
     6    3   18 ar
     7    3   28 ar
     8    4   19 ar
     9    5    6 ar
    10    5   19 ar
    11    5   33 1
    12    6    7 ar
    13    6   34 1
    14    7   20 1
    15    8   11 ar
    16    8   20 1
    17    8   22 ar
    18    9   23 ar
    19    9   24 ar
    20    9   27 ar
    21   10   24 1
    22   10   35 1
    23   10   36 1
    24   10   37 1
    25   11   27 ar
    26   11   38 1
    27   12   30 1
    28   12   39 1
    29   12   40 1
    30   12   41 1
    31   13   17 ar
    32   13   29 ar
    33   13   31 1
    34   14   31 1
    35   14   42 1
    36   14   43 1
    37   14   44 1
    38   15   16 1
    39   15   45 1
    40   15   46 1
    41   15   47 1
    42   16   17 1
    43   17   18 ar
    44   18   48 1
    45   19   56 1
    46   20   21 1
    47   21   49 1
    48   21   50 1
    49   21   51 1
    50   22   23 ar
    51   22   52 1
    52   23   53 1
    53   24   25 ar
    54   25   26 ar
    55   26   27 ar
    56   26   54 1
    57   28   29 ar
    58   28   55 1
    59   29   30 1
@<TRIPOS>SUBSTRUCTURE
     1 KIM         1 GROUP   0 A     ****
@<TRIPOS>MOLECULE
~{N}4-methyl-~{N}4-(3-methyl-2~{H}-indazol-6-yl)-~{N}2-(3,4,5-trimethoxyphenyl)pyrimidine-2,4-diamine
   55    58     1     0     0
SMALL
USER_CHARGES

@<TRIPOS>ATOM
      1 N1          6.0200   41.7280    5.0700 N.pl3     1 KIM        -0.7397
      2 N3          7.1920   40.7770    6.9400 N.ar      1 KIM        -0.7997
      3 C4          7.0160   42.6060    4.5910 C.ar      1 KIM         0.1878
      4 C5          6.0660   40.9220    6.2230 C.ar      1 KIM         0.9096
      5 C6          4.9090   39.5540    7.5850 C.ar      1 KIM         0.4780
      6 C7          6.0050   39.3540    8.3730 C.ar      1 KIM        -0.4513
      7 C8          7.1710   39.9990    8.0230 C.ar      1 KIM         0.7266
      8 C10         8.5420   38.8350    9.7940 C.ar      1 KIM         0.1505
      9 C13         8.9390   36.8970   11.7100 C.ar      1 KIM        -0.2180
     10 C15         9.1260   34.8060   13.2690 C.3       1 KIM        -0.0330
     11 C17         9.1680   39.2020   10.9720 C.ar      1 KIM        -0.2315
     12 C20         6.6560   43.9040    0.7890 C.3       1 KIM         0.1189
     13 C21         8.9050   44.3410    3.5490 C.ar      1 KIM         0.0413
     14 C22        10.9060   44.3900    2.5140 C.3       1 KIM         0.1181
     15 C1          9.6190   44.7170    6.8690 C.3       1 KIM         0.1189
     16 O1         10.1100   44.2850    5.6000 O.3       1 KIM        -0.3388
     17 C2          9.0280   43.8810    4.8390 C.ar      1 KIM         0.1078
     18 C3          8.0900   43.0150    5.3570 C.ar      1 KIM        -0.1756
     19 N2          4.9060   40.3280    6.5070 N.ar      1 KIM        -0.7592
     20 N4          8.3270   39.8160    8.8150 N.pl3     1 KIM        -0.6860
     21 C9          9.4720   40.6740    8.5500 C.3       1 KIM         0.2144
     22 C11         8.1300   37.5310    9.5890 C.ar      1 KIM        -0.1463
     23 C12         8.3160   36.5390   10.5290 C.ar      1 KIM        -0.0557
     24 C14         9.3180   36.2230   12.9050 C.ar      1 KIM        -0.1023
     25 N5          9.9200   37.0510   13.7630 N.pl3     1 KIM         0.0420
     26 N6          9.9280   38.2370   13.1340 N.ar      1 KIM        -0.5300
     27 C16         9.3490   38.2030   11.8960 C.ar      1 KIM         0.3729
     28 C18         6.8950   43.0730    3.2980 C.ar      1 KIM        -0.1756
     29 C19         7.8370   43.9360    2.7820 C.ar      1 KIM         0.1078
     30 O2          7.7710   44.4330    1.4910 O.3       1 KIM        -0.3388
     31 O3          9.8580   45.2110    3.0320 O.3       1 KIM        -0.3338
     32 HN1         5.0736   41.6176    4.5204 H         1 KIM         0.4547
     33 H6          3.9910   39.0530    7.8540 H         1 KIM         0.0288
     34 H7          5.9600   38.7130    9.2410 H         1 KIM         0.1643
     35 H15         9.5415   34.6254   14.2714 H         1 KIM         0.0564
     36 H15A        9.6417   34.1664   12.5376 H         1 KIM         0.0564
     37 H15B        8.0516   34.5699   13.2694 H         1 KIM         0.0564
     38 H17         9.4950   40.2150   11.1540 H         1 KIM         0.1519
     39 H20         6.6339   44.3184   -0.2297 H         1 KIM         0.0423
     40 H20A        5.7290   44.1753    1.3154 H         1 KIM         0.0423
     41 H20B        6.7413   42.8085    0.7375 H         1 KIM         0.0423
     42 H22        11.6949   45.0276    2.0884 H         1 KIM         0.0446
     43 H22A       10.5030   43.7325    1.7297 H         1 KIM         0.0446
     44 H22B       11.3271   43.7778    3.3251 H         1 KIM         0.0446
     45 H1         10.4614   45.0446    7.4959 H         1 KIM         0.0423
     46 H1A         9.0966   43.8844    7.3628 H         1 KIM         0.0423
     47 H1B         8.9207   45.5548    6.7261 H         1 KIM         0.0423
     48 H3          8.1950   42.6530    6.3690 H         1 KIM         0.1609
     49 H9         10.2900   40.4171    9.2391 H         1 KIM         0.0465
     50 H9A         9.1844   41.7254    8.6981 H         1 KIM         0.0465
     51 H9B         9.8071   40.5281    7.5125 H         1 KIM         0.0465
     52 H11         7.6440   37.2800    8.6580 H         1 KIM         0.1460
     53 H12         7.9890   35.5250   10.3500 H         1 KIM         0.1353
     54 H18         6.0600   42.7610    2.6890 H         1 KIM         0.1609
     55 H55        10.2726   36.6750   14.7347 H         1 KIM         0.3222
@<TRIPOS>BOND
     1    1    3 1
     2    1    4 1
     3    1   32 1
     4    2    4 ar
     5    2    7 ar
     6    3   18 ar
     7    3   28 ar
     8    4   19 ar
     9    5    6 ar
    10    5   19 ar
    11    5   33 1
    12    6    7 ar
    13    6   34 1
    14    7   20 1
    15    8   11 ar
    16    8   20 1
    17    8   22 ar
    18    9   23 ar
    19    9   24 ar
    20    9   27 ar
    21   10   24 1
    22   10   35 1
    23   10   36 1
    24   10   37 1
    25   11   27 ar
    26   11   38 1
    27   12   30 1
    28   12   39 1
    29   12   40 1
    30   12   41 1
    31   13   17 ar
    32   13   29 ar
    33   13   31 1
    34   14   31 1
    35   14   42 1
    36   14   43 1
    37   14   44 1
    38   15   16 1
    39   15   45 1
    40   15   46 1
    41   15   47 1
    42   16   17 1
    43   17   18 ar
    44   18   48 1
    45   20   21 1
    46   21   49 1
    47   21   50 1
    48   21   51 1
    49   22   23 ar
    50   22   52 1
    51   23   53 1
    52   24   25 ar
    53   25   26 ar
    54   25   55 1
    55   26   27 ar
    56   28   29 ar
    57   28   54 1
    58   29   30 1
@<TRIPOS>SUBSTRUCTURE
     1 KIM         1 GROUP 0 A     ****
