@<TRIPOS>MOLECULE
5-[[4-[(2,3-dimethylindazol-6-yl)-methyl-amino]pyrimidin-2-yl]amino]-2-methyl-benzenesulfonamide
54   57    1
SMALL
USER_CHARGES


@<TRIPOS>ATOM
      1 C1         -5.7603   -4.9945    2.9658 C.3       1 PAZ        -0.0734 
      2 C2         -4.8761   -4.7061    1.7969 C.ar      1 PAZ         0.0253 
      3 C3         -4.5403   -3.3984    1.4463 C.ar      1 PAZ        -0.3573 
      4 C4         -3.7122   -3.1613    0.3491 C.ar      1 PAZ        -0.0858 
      5 C5         -3.2200   -4.2319   -0.3975 C.ar      1 PAZ         0.1399 
      6 C6         -3.5560   -5.5395   -0.0468 C.ar      1 PAZ        -0.0678 
      7 C7         -4.3840   -5.7766    1.0503 C.ar      1 PAZ        -0.1454 
      8 N1         -2.3835   -3.9928   -1.5060 N.pl3     1 PAZ        -0.7355 
      9 C8         -1.4572   -2.9696   -1.8025 C.ar      1 PAZ         0.9122 
     10 N2         -0.8196   -3.0596   -2.9852 N.ar      1 PAZ        -0.7691 
     11 C9          0.0569   -2.0652   -3.2367 C.ar      1 PAZ         0.4775 
     12 C10         0.3027   -1.0219   -2.3675 C.ar      1 PAZ        -0.4560 
     13 C11        -0.4151   -1.0447   -1.1892 C.ar      1 PAZ         0.7348 
     14 N3         -1.3067   -2.0068   -0.8730 N.ar      1 PAZ        -0.8129 
     15 N4         -0.1931    0.0118   -0.2692 N.pl3     1 PAZ        -0.6753 
     16 C12        -0.3798   -0.3454    1.1426 C.3       1 PAZ         0.2105 
     17 C13         0.4077    1.2666   -0.5590 C.ar      1 PAZ         0.1460 
     18 C14         1.5870    1.6175    0.1342 C.ar      1 PAZ        -0.2289 
     19 C15         2.0987    2.8771   -0.2282 C.ar      1 PAZ         0.3735 
     20 N5          3.1862    3.5350    0.2111 N.2       1 PAZ        -0.5266 
     21 N6          3.1877    4.6915   -0.4799 N.pl3     1 PAZ         0.1499 
     22 C16         2.1531    4.8334   -1.3580 C.ar      1 PAZ        -0.1003 
     23 C17         1.4303    3.6821   -1.2225 C.ar      1 PAZ        -0.2201 
     24 C18         0.2718    3.3661   -1.9209 C.ar      1 PAZ        -0.0538 
     25 C19        -0.2175    2.1015   -1.5382 C.ar      1 PAZ        -0.1506 
     26 C20         1.9811    6.0279   -2.2064 C.3       1 PAZ        -0.0311 
     27 C21         4.2480    5.6440   -0.2407 C.3       1 PAZ         0.0269 
     28 S1         -5.1401   -2.0322    2.3609 S.o2      1 PAZ         1.5218 
     29 O1         -6.5843   -1.9722    2.1954 O.2       1 PAZ        -0.6587 
     30 O2         -4.5634   -2.0854    3.6957 O.2       1 PAZ        -0.6587 
     31 N7         -4.4300   -0.7359    1.5053 N.pl3     1 PAZ        -1.0249 
     32 H1         -6.0588   -4.0488    3.4418 H         1 PAZ         0.0577 
     33 H2         -5.2161   -5.6152    3.6928 H         1 PAZ         0.0577 
     34 H3         -6.6570   -5.5318    2.6235 H         1 PAZ         0.0577 
     35 H4         -3.4494   -2.1422    0.0745 H         1 PAZ         0.1592 
     36 H5         -3.1780   -6.3811   -0.6217 H         1 PAZ         0.1647 
     37 H6         -4.6398   -6.7992    1.3151 H         1 PAZ         0.1405 
     38 H7         -2.3859   -4.6895   -2.3572 H         1 PAZ         0.4556 
     39 H8          0.5726   -2.1325   -4.1888 H         1 PAZ         0.0262 
     40 H9          1.0141   -0.2418   -2.6085 H         1 PAZ         0.1643 
     41 H10        -0.1858    0.5354    1.7724 H         1 PAZ         0.0492 
     42 H11         0.3194   -1.1505    1.4127 H         1 PAZ         0.0492 
     43 H12        -1.4129   -0.6887    1.3004 H         1 PAZ         0.0492 
     44 H13         2.0524    0.9766    0.8724 H         1 PAZ         0.1521 
     45 H14        -0.2141    3.9853   -2.6618 H         1 PAZ         0.1346 
     46 H15        -1.1283    1.7449   -2.0210 H         1 PAZ         0.1435 
     47 H16         1.0802    5.9105   -2.8265 H         1 PAZ         0.0550 
     48 H17         2.8608    6.1458   -2.8563 H         1 PAZ         0.0550 
     49 H18         1.8741    6.9180   -1.5690 H         1 PAZ         0.0550 
     50 H19         4.1001    6.5259   -0.8814 H         1 PAZ         0.0651 
     51 H20         5.2175    5.1797   -0.4741 H         1 PAZ         0.0651 
     52 H21         4.2334    5.9514    0.8154 H         1 PAZ         0.0651 
     53 H22        -4.7221    0.2159    1.9730 H         1 PAZ         0.4460 
     54 H23        -4.7757   -0.7527    0.4612 H         1 PAZ         0.4460 
@<TRIPOS>BOND
     1    1    2 1    
     2    1   32 1    
     3    1   33 1    
     4    1   34 1    
     5    2    7 ar   
     6    2    3 ar   
     7    3    4 ar   
     8    3   28 1    
     9    4    5 ar   
    10    4   35 1    
    11    5    6 ar   
    12    5    8 1    
    13    6    7 ar   
    14    6   36 1    
    15    7   37 1    
    16    8    9 1    
    17    8   38 1    
    18    9   14 ar   
    19    9   10 ar   
    20   10   11 ar   
    21   11   12 ar   
    22   11   39 1    
    23   12   13 ar   
    24   12   40 1    
    25   13   14 ar   
    26   13   15 1    
    27   15   16 1    
    28   15   17 1    
    29   16   41 1    
    30   16   42 1    
    31   16   43 1    
    32   17   25 ar   
    33   17   18 ar   
    34   18   19 ar   
    35   18   44 1    
    36   19   23 ar   
    37   19   20 ar   
    38   20   21 ar   
    39   21   22 ar   
    40   21   27 1    
    41   22   23 ar   
    42   22   26 1    
    43   23   24 ar   
    44   24   25 ar   
    45   24   45 1    
    46   25   46 1    
    47   26   47 1    
    48   26   48 1    
    49   26   49 1    
    50   27   50 1    
    51   27   51 1    
    52   27   52 1    
    53   28   29 2    
    54   28   30 2    
    55   28   31 1    
    56   31   53 1    
    57   31   54 1    
@<TRIPOS>SUBSTRUCTURE
     1 PAZ         1 GROUP             0       ****    0 ROOT    
@<TRIPOS>MOLECULE
5-[[4-[(2,3-dimethylindazol-6-yl)-methyl-amino]pyrimidin-2-yl]amino]-2-methyl-benzenesulfonamide
55   58    1
SMALL
USER_CHARGES


@<TRIPOS>ATOM
      1 C1         -5.7603   -4.9945    2.9658 C.3       1 PAZ        -0.0734 
      2 C2         -4.8761   -4.7061    1.7969 C.ar      1 PAZ         0.0253 
      3 C3         -4.5403   -3.3984    1.4463 C.ar      1 PAZ        -0.3573 
      4 C4         -3.7122   -3.1613    0.3491 C.ar      1 PAZ        -0.0858 
      5 C5         -3.2200   -4.2319   -0.3975 C.ar      1 PAZ         0.1399 
      6 C6         -3.5560   -5.5395   -0.0468 C.ar      1 PAZ        -0.0678 
      7 C7         -4.3840   -5.7766    1.0503 C.ar      1 PAZ        -0.1454 
      8 N1         -2.3835   -3.9928   -1.5060 N.pl3     1 PAZ        -0.7355 
      9 C8         -1.4572   -2.9696   -1.8025 C.ar      1 PAZ         0.9122 
     10 N2         -0.8196   -3.0596   -2.9852 N.pl3     1 PAZ        -0.7691 
     11 C9          0.0569   -2.0652   -3.2367 C.ar      1 PAZ         0.4775 
     12 C10         0.3027   -1.0219   -2.3675 C.ar      1 PAZ        -0.4560 
     13 C11        -0.4151   -1.0447   -1.1892 C.ar      1 PAZ         0.7348 
     14 N3         -1.3067   -2.0068   -0.8730 N.ar      1 PAZ        -0.8129 
     15 N4         -0.1931    0.0118   -0.2692 N.pl3     1 PAZ        -0.6753 
     16 C12        -0.3798   -0.3454    1.1426 C.3       1 PAZ         0.2105 
     17 C13         0.4077    1.2666   -0.5590 C.ar      1 PAZ         0.1460 
     18 C14         1.5870    1.6175    0.1342 C.ar      1 PAZ        -0.2289 
     19 C15         2.0987    2.8771   -0.2282 C.ar      1 PAZ         0.3735 
     20 N5          3.1862    3.5350    0.2111 N.2       1 PAZ        -0.5266 
     21 N6          3.1877    4.6915   -0.4799 N.pl3     1 PAZ         0.1499 
     22 C16         2.1531    4.8334   -1.3580 C.ar      1 PAZ        -0.1003 
     23 C17         1.4303    3.6821   -1.2225 C.ar      1 PAZ        -0.2201 
     24 C18         0.2718    3.3661   -1.9209 C.ar      1 PAZ        -0.0538 
     25 C19        -0.2175    2.1015   -1.5382 C.ar      1 PAZ        -0.1506 
     26 C20         1.9811    6.0279   -2.2064 C.3       1 PAZ        -0.0311 
     27 C21         4.2480    5.6440   -0.2407 C.3       1 PAZ         0.0269 
     28 S1         -5.1401   -2.0322    2.3609 S.o2      1 PAZ         1.5218 
     29 O1         -6.5843   -1.9722    2.1954 O.2       1 PAZ        -0.6587 
     30 O2         -4.5634   -2.0854    3.6957 O.2       1 PAZ        -0.6587 
     31 N7         -4.4300   -0.7359    1.5053 N.pl3     1 PAZ        -1.0249 
     32 H1         -6.0588   -4.0488    3.4418 H         1 PAZ         0.0577 
     33 H2         -5.2161   -5.6152    3.6928 H         1 PAZ         0.0577 
     34 H3         -6.6570   -5.5318    2.6235 H         1 PAZ         0.0577 
     35 H4         -3.4494   -2.1422    0.0745 H         1 PAZ         0.1592 
     36 H5         -3.1780   -6.3811   -0.6217 H         1 PAZ         0.1647 
     37 H6         -4.6398   -6.7992    1.3151 H         1 PAZ         0.1405 
     38 H7         -2.3859   -4.6895   -2.3572 H         1 PAZ         0.4556 
     39 H8          0.5726   -2.1325   -4.1888 H         1 PAZ         0.0262 
     40 H9          1.0141   -0.2418   -2.6085 H         1 PAZ         0.1643 
     41 H10        -0.1858    0.5354    1.7724 H         1 PAZ         0.0492 
     42 H11         0.3194   -1.1505    1.4127 H         1 PAZ         0.0492 
     43 H12        -1.4129   -0.6887    1.3004 H         1 PAZ         0.0492 
     44 H13         2.0524    0.9766    0.8724 H         1 PAZ         0.1521 
     45 H14        -0.2141    3.9853   -2.6618 H         1 PAZ         0.1346 
     46 H15        -1.1283    1.7449   -2.0210 H         1 PAZ         0.1435 
     47 H16         1.0802    5.9105   -2.8265 H         1 PAZ         0.0550 
     48 H17         2.8608    6.1458   -2.8563 H         1 PAZ         0.0550 
     49 H18         1.8741    6.9180   -1.5690 H         1 PAZ         0.0550 
     50 H19         4.1001    6.5259   -0.8814 H         1 PAZ         0.0651 
     51 H20         5.2175    5.1797   -0.4741 H         1 PAZ         0.0651 
     52 H21         4.2334    5.9514    0.8154 H         1 PAZ         0.0651 
     53 H22        -4.7221    0.2159    1.9730 H         1 PAZ         0.4460 
     54 H23        -4.7757   -0.7527    0.4612 H         1 PAZ         0.4460 
     55 H55        -1.0319   -3.9005   -3.6619 H         1 PAZ         0.0000 
@<TRIPOS>BOND
     1    1    2 1    
     2    1   32 1    
     3    1   33 1    
     4    1   34 1    
     5    2    7 ar   
     6    2    3 ar   
     7    3    4 ar   
     8    3   28 1    
     9    4    5 ar   
    10    4   35 1    
    11    5    6 ar   
    12    5    8 1    
    13    6    7 ar   
    14    6   36 1    
    15    7   37 1    
    16    8    9 1    
    17    8   38 1    
    18    9   14 ar   
    19    9   10 ar   
    20   10   11 ar   
    21   10   55 1    
    22   11   12 ar   
    23   11   39 1    
    24   12   13 ar   
    25   12   40 1    
    26   13   14 ar   
    27   13   15 1    
    28   15   16 1    
    29   15   17 1    
    30   16   41 1    
    31   16   42 1    
    32   16   43 1    
    33   17   25 ar   
    34   17   18 ar   
    35   18   19 ar   
    36   18   44 1    
    37   19   23 ar   
    38   19   20 ar   
    39   20   21 ar   
    40   21   22 ar   
    41   21   27 1    
    42   22   23 ar   
    43   22   26 1    
    44   23   24 ar   
    45   24   25 ar   
    46   24   45 1    
    47   25   46 1    
    48   26   47 1    
    49   26   48 1    
    50   26   49 1    
    51   27   50 1    
    52   27   51 1    
    53   27   52 1    
    54   28   29 2    
    55   28   30 2    
    56   28   31 1    
    57   31   53 1    
    58   31   54 1    
@<TRIPOS>SUBSTRUCTURE
     1 PAZ         1 GROUP             0       ****    0 ROOT    
@<TRIPOS>MOLECULE
5-[[4-[(2,3-dimethylindazol-6-yl)-methyl-amino]pyrimidin-2-yl]amino]-2-methyl-benzenesulfonamide
55   58    1
SMALL
USER_CHARGES


@<TRIPOS>ATOM
      1 C1         -5.7603   -4.9945    2.9658 C.3       1 PAZ        -0.0734 
      2 C2         -4.8761   -4.7061    1.7969 C.ar      1 PAZ         0.0253 
      3 C3         -4.5403   -3.3984    1.4463 C.ar      1 PAZ        -0.3573 
      4 C4         -3.7122   -3.1613    0.3491 C.ar      1 PAZ        -0.0858 
      5 C5         -3.2200   -4.2319   -0.3975 C.ar      1 PAZ         0.1399 
      6 C6         -3.5560   -5.5395   -0.0468 C.ar      1 PAZ        -0.0678 
      7 C7         -4.3840   -5.7766    1.0503 C.ar      1 PAZ        -0.1454 
      8 N1         -2.3835   -3.9928   -1.5060 N.pl3     1 PAZ        -0.7355 
      9 C8         -1.4572   -2.9696   -1.8025 C.ar      1 PAZ         0.9122 
     10 N2         -0.8196   -3.0596   -2.9852 N.ar      1 PAZ        -0.7691 
     11 C9          0.0569   -2.0652   -3.2367 C.ar      1 PAZ         0.4775 
     12 C10         0.3027   -1.0219   -2.3675 C.ar      1 PAZ        -0.4560 
     13 C11        -0.4151   -1.0447   -1.1892 C.ar      1 PAZ         0.7348 
     14 N3         -1.3067   -2.0068   -0.8730 N.ar      1 PAZ        -0.8129 
     15 N4         -0.1931    0.0118   -0.2692 N.pl3     1 PAZ        -0.6753 
     16 C12        -0.3798   -0.3454    1.1426 C.3       1 PAZ         0.2105 
     17 C13         0.4077    1.2666   -0.5590 C.ar      1 PAZ         0.1460 
     18 C14         1.5870    1.6175    0.1342 C.ar      1 PAZ        -0.2289 
     19 C15         2.0987    2.8771   -0.2282 C.ar      1 PAZ         0.3735 
     20 N5          3.1862    3.5350    0.2111 N.pl3     1 PAZ        -0.5266 
     21 N6          3.1877    4.6915   -0.4799 N.pl3     1 PAZ         0.1499 
     22 C16         2.1531    4.8334   -1.3580 C.ar      1 PAZ        -0.1003 
     23 C17         1.4303    3.6821   -1.2225 C.ar      1 PAZ        -0.2201 
     24 C18         0.2718    3.3661   -1.9209 C.ar      1 PAZ        -0.0538 
     25 C19        -0.2175    2.1015   -1.5382 C.ar      1 PAZ        -0.1506 
     26 C20         1.9811    6.0279   -2.2064 C.3       1 PAZ        -0.0311 
     27 C21         4.2480    5.6440   -0.2407 C.3       1 PAZ         0.0269 
     28 S1         -5.1401   -2.0322    2.3609 S.o2      1 PAZ         1.5218 
     29 O1         -6.5843   -1.9722    2.1954 O.2       1 PAZ        -0.6587 
     30 O2         -4.5634   -2.0854    3.6957 O.2       1 PAZ        -0.6587 
     31 N7         -4.4300   -0.7359    1.5053 N.pl3     1 PAZ        -1.0249 
     32 H1         -6.0588   -4.0488    3.4418 H         1 PAZ         0.0577 
     33 H2         -5.2161   -5.6152    3.6928 H         1 PAZ         0.0577 
     34 H3         -6.6570   -5.5318    2.6235 H         1 PAZ         0.0577 
     35 H4         -3.4494   -2.1422    0.0745 H         1 PAZ         0.1592 
     36 H5         -3.1780   -6.3811   -0.6217 H         1 PAZ         0.1647 
     37 H6         -4.6398   -6.7992    1.3151 H         1 PAZ         0.1405 
     38 H7         -2.3859   -4.6895   -2.3572 H         1 PAZ         0.4556 
     39 H8          0.5726   -2.1325   -4.1888 H         1 PAZ         0.0262 
     40 H9          1.0141   -0.2418   -2.6085 H         1 PAZ         0.1643 
     41 H10        -0.1858    0.5354    1.7724 H         1 PAZ         0.0492 
     42 H11         0.3194   -1.1505    1.4127 H         1 PAZ         0.0492 
     43 H12        -1.4129   -0.6887    1.3004 H         1 PAZ         0.0492 
     44 H13         2.0524    0.9766    0.8724 H         1 PAZ         0.1521 
     45 H14        -0.2141    3.9853   -2.6618 H         1 PAZ         0.1346 
     46 H15        -1.1283    1.7449   -2.0210 H         1 PAZ         0.1435 
     47 H16         1.0802    5.9105   -2.8265 H         1 PAZ         0.0550 
     48 H17         2.8608    6.1458   -2.8563 H         1 PAZ         0.0550 
     49 H18         1.8741    6.9180   -1.5690 H         1 PAZ         0.0550 
     50 H19         4.1001    6.5259   -0.8814 H         1 PAZ         0.0651 
     51 H20         5.2175    5.1797   -0.4741 H         1 PAZ         0.0651 
     52 H21         4.2334    5.9514    0.8154 H         1 PAZ         0.0651 
     53 H22        -4.7221    0.2159    1.9730 H         1 PAZ         0.4460 
     54 H23        -4.7757   -0.7527    0.4612 H         1 PAZ         0.4460 
     55 H55         3.8316    3.0808    0.9773 H         1 PAZ         0.0000 
@<TRIPOS>BOND
     1    1    2 1    
     2    1   32 1    
     3    1   33 1    
     4    1   34 1    
     5    2    7 ar   
     6    2    3 ar   
     7    3    4 ar   
     8    3   28 1    
     9    4    5 ar   
    10    4   35 1    
    11    5    6 ar   
    12    5    8 1    
    13    6    7 ar   
    14    6   36 1    
    15    7   37 1    
    16    8    9 1    
    17    8   38 1    
    18    9   14 ar   
    19    9   10 ar   
    20   10   11 ar   
    21   11   12 ar   
    22   11   39 1    
    23   12   13 ar   
    24   12   40 1    
    25   13   14 ar   
    26   13   15 1    
    27   15   16 1    
    28   15   17 1    
    29   16   41 1    
    30   16   42 1    
    31   16   43 1    
    32   17   25 ar   
    33   17   18 ar   
    34   18   19 ar   
    35   18   44 1    
    36   19   23 ar   
    37   19   20 ar   
    38   20   21 1    
    39   20   55 1    
    40   21   22 ar   
    41   21   27 1    
    42   22   23 ar   
    43   22   26 1    
    44   23   24 ar   
    45   24   25 ar   
    46   24   45 1    
    47   25   46 1    
    48   26   47 1    
    49   26   48 1    
    50   26   49 1    
    51   27   50 1    
    52   27   51 1    
    53   27   52 1    
    54   28   29 2    
    55   28   30 2    
    56   28   31 1    
    57   31   53 1    
    58   31   54 1    
@<TRIPOS>SUBSTRUCTURE
     1 PAZ         1 GROUP             0       ****    0 ROOT    
@<TRIPOS>MOLECULE
5-[[4-[(2,3-dimethylindazol-6-yl)-methyl-amino]pyrimidin-2-yl]amino]-2-methyl-benzenesulfonamide
53   56    1
SMALL
USER_CHARGES


@<TRIPOS>ATOM
      1 C1         -5.7603   -4.9945    2.9658 C.3       1 PAZ        -0.0734 
      2 C2         -4.8761   -4.7061    1.7969 C.ar      1 PAZ         0.0253 
      3 C3         -4.5403   -3.3984    1.4463 C.ar      1 PAZ        -0.3573 
      4 C4         -3.7122   -3.1613    0.3491 C.ar      1 PAZ        -0.0858 
      5 C5         -3.2200   -4.2319   -0.3975 C.ar      1 PAZ         0.1399 
      6 C6         -3.5560   -5.5395   -0.0468 C.ar      1 PAZ        -0.0678 
      7 C7         -4.3840   -5.7766    1.0503 C.ar      1 PAZ        -0.1454 
      8 N1         -2.3835   -3.9928   -1.5060 N.pl3     1 PAZ        -0.7355 
      9 C8         -1.4572   -2.9696   -1.8025 C.ar      1 PAZ         0.9122 
     10 N2         -0.8196   -3.0596   -2.9852 N.ar      1 PAZ        -0.7691 
     11 C9          0.0569   -2.0652   -3.2367 C.ar      1 PAZ         0.4775 
     12 C10         0.3027   -1.0219   -2.3675 C.ar      1 PAZ        -0.4560 
     13 C11        -0.4151   -1.0447   -1.1892 C.ar      1 PAZ         0.7348 
     14 N3         -1.3067   -2.0068   -0.8730 N.ar      1 PAZ        -0.8129 
     15 N4         -0.1931    0.0118   -0.2692 N.pl3     1 PAZ        -0.6753 
     16 C12        -0.3798   -0.3454    1.1426 C.3       1 PAZ         0.2105 
     17 C13         0.4077    1.2666   -0.5590 C.ar      1 PAZ         0.1460 
     18 C14         1.5870    1.6175    0.1342 C.ar      1 PAZ        -0.2289 
     19 C15         2.0987    2.8771   -0.2282 C.ar      1 PAZ         0.3735 
     20 N5          3.1862    3.5350    0.2111 N.2       1 PAZ        -0.5266 
     21 N6          3.1877    4.6915   -0.4799 N.pl3     1 PAZ         0.1499 
     22 C16         2.1531    4.8334   -1.3580 C.ar      1 PAZ        -0.1003 
     23 C17         1.4303    3.6821   -1.2225 C.ar      1 PAZ        -0.2201 
     24 C18         0.2718    3.3661   -1.9209 C.ar      1 PAZ        -0.0538 
     25 C19        -0.2175    2.1015   -1.5382 C.ar      1 PAZ        -0.1506 
     26 C20         1.9811    6.0279   -2.2064 C.3       1 PAZ        -0.0311 
     27 C21         4.2480    5.6440   -0.2407 C.3       1 PAZ         0.0269 
     28 S1         -5.1401   -2.0322    2.3609 S.o2      1 PAZ         1.5218 
     29 O1         -6.5843   -1.9722    2.1954 O.2       1 PAZ        -0.6587 
     30 O2         -4.5634   -2.0854    3.6957 O.2       1 PAZ        -0.6587 
     31 N7         -4.4300   -0.7359    1.5053 N.2       1 PAZ        -1.0249 
     32 H1         -6.0588   -4.0488    3.4418 H         1 PAZ         0.0577 
     33 H2         -5.2161   -5.6152    3.6928 H         1 PAZ         0.0577 
     34 H3         -6.6570   -5.5318    2.6235 H         1 PAZ         0.0577 
     35 H4         -3.4494   -2.1422    0.0745 H         1 PAZ         0.1592 
     36 H5         -3.1780   -6.3811   -0.6217 H         1 PAZ         0.1647 
     37 H6         -4.6398   -6.7992    1.3151 H         1 PAZ         0.1405 
     38 H7         -2.3859   -4.6895   -2.3572 H         1 PAZ         0.4556 
     39 H8          0.5726   -2.1325   -4.1888 H         1 PAZ         0.0262 
     40 H9          1.0141   -0.2418   -2.6085 H         1 PAZ         0.1643 
     41 H10        -0.1858    0.5354    1.7724 H         1 PAZ         0.0492 
     42 H11         0.3194   -1.1505    1.4127 H         1 PAZ         0.0492 
     43 H12        -1.4129   -0.6887    1.3004 H         1 PAZ         0.0492 
     44 H13         2.0524    0.9766    0.8724 H         1 PAZ         0.1521 
     45 H14        -0.2141    3.9853   -2.6618 H         1 PAZ         0.1346 
     46 H15        -1.1283    1.7449   -2.0210 H         1 PAZ         0.1435 
     47 H16         1.0802    5.9105   -2.8265 H         1 PAZ         0.0550 
     48 H17         2.8608    6.1458   -2.8563 H         1 PAZ         0.0550 
     49 H18         1.8741    6.9180   -1.5690 H         1 PAZ         0.0550 
     50 H19         4.1001    6.5259   -0.8814 H         1 PAZ         0.0651 
     51 H20         5.2175    5.1797   -0.4741 H         1 PAZ         0.0651 
     52 H21         4.2334    5.9514    0.8154 H         1 PAZ         0.0651 
     53 H23        -4.6097    0.3002    1.8281 H         1 PAZ         0.4460 
@<TRIPOS>BOND
     1    1    2 1    
     2    1   32 1    
     3    1   33 1    
     4    1   34 1    
     5    2    7 ar   
     6    2    3 ar   
     7    3    4 ar   
     8    3   28 1    
     9    4    5 ar   
    10    4   35 1    
    11    5    6 ar   
    12    5    8 1    
    13    6    7 ar   
    14    6   36 1    
    15    7   37 1    
    16    8    9 1    
    17    8   38 1    
    18    9   14 ar   
    19    9   10 ar   
    20   10   11 ar   
    21   11   12 ar   
    22   11   39 1    
    23   12   13 ar   
    24   12   40 1    
    25   13   14 ar   
    26   13   15 1    
    27   15   16 1    
    28   15   17 1    
    29   16   41 1    
    30   16   42 1    
    31   16   43 1    
    32   17   25 ar   
    33   17   18 ar   
    34   18   19 ar   
    35   18   44 1    
    36   19   23 ar   
    37   19   20 ar   
    38   20   21 ar   
    39   21   22 ar   
    40   21   27 1    
    41   22   23 ar   
    42   22   26 1    
    43   23   24 ar   
    44   24   25 ar   
    45   24   45 1    
    46   25   46 1    
    47   26   47 1    
    48   26   48 1    
    49   26   49 1    
    50   27   50 1    
    51   27   51 1    
    52   27   52 1    
    53   28   29 2    
    54   28   30 2    
    55   28   31 1    
    56   31   53 1    
@<TRIPOS>SUBSTRUCTURE
     1 PAZ         1 GROUP             0       ****    0 ROOT    
