5-[[4-[(2,3-dimethylindazol-6-yl)-methyl-amino]pyrimidin-2-yl]amino]-2-methyl-benzenesulfonamide
                    3D
 Structure written by MMmdl.
 54 57  0  0  1  0            999 V2000
   -5.7603   -4.9945    2.9658 C   0  0  0  0  0  0
   -4.8761   -4.7061    1.7969 C   0  0  0  0  0  0
   -4.5403   -3.3984    1.4463 C   0  0  0  0  0  0
   -3.7122   -3.1613    0.3491 C   0  0  0  0  0  0
   -3.2200   -4.2319   -0.3975 C   0  0  0  0  0  0
   -3.5560   -5.5395   -0.0468 C   0  0  0  0  0  0
   -4.3840   -5.7766    1.0503 C   0  0  0  0  0  0
   -2.3835   -3.9928   -1.5060 N   0  0  0  0  0  0
   -1.4572   -2.9696   -1.8025 C   0  0  0  0  0  0
   -0.8196   -3.0596   -2.9852 N   0  0  0  0  0  0
    0.0569   -2.0652   -3.2367 C   0  0  0  0  0  0
    0.3027   -1.0219   -2.3675 C   0  0  0  0  0  0
   -0.4151   -1.0447   -1.1892 C   0  0  0  0  0  0
   -1.3067   -2.0068   -0.8730 N   0  0  0  0  0  0
   -0.1931    0.0118   -0.2692 N   0  0  0  0  0  0
   -0.3798   -0.3454    1.1426 C   0  0  0  0  0  0
    0.4077    1.2666   -0.5590 C   0  0  0  0  0  0
    1.5870    1.6175    0.1342 C   0  0  0  0  0  0
    2.0987    2.8771   -0.2282 C   0  0  0  0  0  0
    3.1862    3.5350    0.2111 N   0  0  0  0  0  0
    3.1877    4.6915   -0.4799 N   0  0  0  0  0  0
    2.1531    4.8334   -1.3580 C   0  0  0  0  0  0
    1.4303    3.6821   -1.2225 C   0  0  0  0  0  0
    0.2718    3.3661   -1.9209 C   0  0  0  0  0  0
   -0.2175    2.1015   -1.5382 C   0  0  0  0  0  0
    1.9811    6.0279   -2.2064 C   0  0  0  0  0  0
    4.2480    5.6440   -0.2407 C   0  0  0  0  0  0
   -5.1401   -2.0322    2.3609 S   0  0  0  0  0  0
   -6.5843   -1.9722    2.1954 O   0  0  0  0  0  0
   -4.5634   -2.0854    3.6957 O   0  0  0  0  0  0
   -4.4300   -0.7359    1.5053 N   0  0  0  0  0  0
   -6.0588   -4.0488    3.4418 H   0  0  0  0  0  0
   -5.2161   -5.6152    3.6928 H   0  0  0  0  0  0
   -6.6570   -5.5318    2.6235 H   0  0  0  0  0  0
   -3.4494   -2.1422    0.0745 H   0  0  0  0  0  0
   -3.1780   -6.3811   -0.6217 H   0  0  0  0  0  0
   -4.6398   -6.7992    1.3151 H   0  0  0  0  0  0
   -2.3859   -4.6895   -2.3572 H   0  0  0  0  0  0
    0.5726   -2.1325   -4.1888 H   0  0  0  0  0  0
    1.0141   -0.2418   -2.6085 H   0  0  0  0  0  0
   -0.1858    0.5354    1.7724 H   0  0  0  0  0  0
    0.3194   -1.1505    1.4127 H   0  0  0  0  0  0
   -1.4129   -0.6887    1.3004 H   0  0  0  0  0  0
    2.0524    0.9766    0.8724 H   0  0  0  0  0  0
   -0.2141    3.9853   -2.6618 H   0  0  0  0  0  0
   -1.1283    1.7449   -2.0210 H   0  0  0  0  0  0
    1.0802    5.9105   -2.8265 H   0  0  0  0  0  0
    2.8608    6.1458   -2.8563 H   0  0  0  0  0  0
    1.8741    6.9180   -1.5690 H   0  0  0  0  0  0
    4.1001    6.5259   -0.8814 H   0  0  0  0  0  0
    5.2175    5.1797   -0.4741 H   0  0  0  0  0  0
    4.2334    5.9514    0.8154 H   0  0  0  0  0  0
   -4.7221    0.2159    1.9730 H   0  0  0  0  0  0
   -4.7757   -0.7527    0.4612 H   0  0  0  0  0  0
  1  2  1  0  0  0
  1 32  1  0  0  0
  1 33  1  0  0  0
  1 34  1  0  0  0
  2  7  2  0  0  0
  2  3  1  0  0  0
  3  4  2  0  0  0
  3 28  1  0  0  0
  4  5  1  0  0  0
  4 35  1  0  0  0
  5  6  2  0  0  0
  5  8  1  0  0  0
  6  7  1  0  0  0
  6 36  1  0  0  0
  7 37  1  0  0  0
  8  9  1  0  0  0
  8 38  1  0  0  0
  9 14  2  0  0  0
  9 10  1  0  0  0
 10 11  2  0  0  0
 11 12  1  0  0  0
 11 39  1  0  0  0
 12 13  2  0  0  0
 12 40  1  0  0  0
 13 14  1  0  0  0
 13 15  1  0  0  0
 15 16  1  0  0  0
 15 17  1  0  0  0
 16 41  1  0  0  0
 16 42  1  0  0  0
 16 43  1  0  0  0
 17 25  1  0  0  0
 17 18  2  0  0  0
 18 19  1  0  0  0
 18 44  1  0  0  0
 19 23  1  0  0  0
 19 20  2  0  0  0
 20 21  1  0  0  0
 21 22  1  0  0  0
 21 27  1  0  0  0
 22 23  2  0  0  0
 22 26  1  0  0  0
 23 24  1  0  0  0
 24 25  2  0  0  0
 24 45  1  0  0  0
 25 46  1  0  0  0
 26 47  1  0  0  0
 26 48  1  0  0  0
 26 49  1  0  0  0
 27 50  1  0  0  0
 27 51  1  0  0  0
 27 52  1  0  0  0
 28 29  2  0  0  0
 28 30  2  0  0  0
 28 31  1  0  0  0
 31 53  1  0  0  0
 31 54  1  0  0  0
M  END
> <s_m_source_file>
/Users/andrea/Development/mcce-charges/epik_inhibitors/output/Pazopanib/Pazopanib-input.mol2

> <i_m_source_file_index>
1

> <r_lp_tautomer_probability>
0.99999893677273

> <r_epik_Ionization_Penalty>
  0.0148

> <r_epik_Ionization_Penalty_Charging>
  0.0000

> <r_epik_Ionization_Penalty_Neutral>
  0.0148

> <r_epik_State_Penalty>
  0.0061

> <i_epik_Tot_Q>
0

$$$$
5-[[4-[(2,3-dimethylindazol-6-yl)-methyl-amino]pyrimidin-2-yl]amino]-2-methyl-benzenesulfonamide
                    3D
 Structure written by MMmdl.
 55 58  0  0  1  0            999 V2000
   -5.7509   -5.0014    2.9714 C   0  0  0  0  0  0
   -4.8684   -4.7117    1.8015 C   0  0  0  0  0  0
   -4.5345   -3.4035    1.4508 C   0  0  0  0  0  0
   -3.7080   -3.1653    0.3526 C   0  0  0  0  0  0
   -3.2156   -4.2351   -0.3949 C   0  0  0  0  0  0
   -3.5497   -5.5432   -0.0441 C   0  0  0  0  0  0
   -4.3761   -5.7815    1.0540 C   0  0  0  0  0  0
   -2.3807   -3.9948   -1.5043 N   0  0  0  0  0  0
   -1.4559   -2.9706   -1.8017 C   0  0  0  0  0  0
   -0.8185   -3.0604   -2.9845 N   0  0  0  0  0  0
    0.0579   -2.0660   -3.2361 C   0  0  0  0  0  0
    0.3053   -1.0238   -2.3659 C   0  0  0  0  0  0
   -0.4151   -1.0447   -1.1892 C   0  0  0  0  0  0
   -1.3053   -2.0078   -0.8721 N   0  0  0  0  0  0
   -0.1931    0.0118   -0.2692 N   0  3  0  0  0  0
   -0.3798   -0.3454    1.1426 C   0  0  0  0  0  0
    0.1828    1.3435   -0.5930 C   0  0  0  0  0  0
    1.3995    1.8381   -0.0738 C   0  0  0  0  0  0
    1.6762    3.1638   -0.4555 C   0  0  0  0  0  0
    2.7223    3.9554   -0.1597 N   0  0  0  0  0  0
    2.4617    5.1160   -0.7922 N   0  0  0  0  0  0
    1.2922    5.1333   -1.4947 C   0  0  0  0  0  0
    0.7588    3.8908   -1.3001 C   0  0  0  0  0  0
   -0.4429    3.4337   -1.8261 C   0  0  0  0  0  0
   -0.6938    2.1056   -1.4280 C   0  0  0  0  0  0
    0.8319    6.3111   -2.2544 C   0  0  0  0  0  0
    3.4106    6.1999   -0.6770 C   0  0  0  0  0  0
   -5.1346   -2.0382    2.3665 S   0  0  0  0  0  0
   -6.5791   -1.9798    2.2028 O   0  0  0  0  0  0
   -4.5562   -2.0912    3.7006 O   0  0  0  0  0  0
   -4.4270   -0.7409    1.5104 N   0  0  0  0  0  0
   -6.0498   -4.0562    3.4481 H   0  0  0  0  0  0
   -5.2051   -5.6217    3.6976 H   0  0  0  0  0  0
   -6.6474   -5.5395    2.6300 H   0  0  0  0  0  0
   -3.4466   -2.1458    0.0780 H   0  0  0  0  0  0
   -3.1715   -6.3842   -0.6197 H   0  0  0  0  0  0
   -4.6305   -6.8044    1.3188 H   0  0  0  0  0  0
   -1.0308   -3.9012   -3.6612 H   0  0  0  0  0  0
    0.5411   -2.1128   -4.1104 H   0  0  0  0  0  0
    0.9710   -0.3178   -2.6078 H   0  0  0  0  0  0
   -0.1858    0.5354    1.7724 H   0  0  0  0  0  0
    0.3194   -1.1505    1.4127 H   0  0  0  0  0  0
   -1.4129   -0.6887    1.3004 H   0  0  0  0  0  0
    1.9705    1.2548    0.5039 H   0  0  0  0  0  0
   -1.0978    3.9127   -2.4106 H   0  0  0  0  0  0
   -1.5265    1.6418   -1.7306 H   0  0  0  0  0  0
   -0.1318    6.0845   -2.7339 H   0  0  0  0  0  0
    1.5748    6.5633   -3.0254 H   0  0  0  0  0  0
    0.7096    7.1638   -1.5703 H   0  0  0  0  0  0
    3.0481    7.0669   -1.2488 H   0  0  0  0  0  0
    4.3842    5.8788   -1.0758 H   0  0  0  0  0  0
    3.5218    6.4790    0.3811 H   0  0  0  0  0  0
   -4.7195    0.2104    1.9787 H   0  0  0  0  0  0
   -4.7740   -0.7578    0.4667 H   0  0  0  0  0  0
   -2.5487   -4.8100   -2.2235 H   0  0  0  0  0  0
  1  2  1  0  0  0
  1 32  1  0  0  0
  1 33  1  0  0  0
  1 34  1  0  0  0
  2  7  2  0  0  0
  2  3  1  0  0  0
  3  4  2  0  0  0
  3 28  1  0  0  0
  4  5  1  0  0  0
  4 35  1  0  0  0
  5  6  2  0  0  0
  5  8  1  0  0  0
  6  7  1  0  0  0
  6 36  1  0  0  0
  7 37  1  0  0  0
  8  9  1  0  0  0
  8 55  1  0  0  0
  9 14  2  0  0  0
  9 10  1  0  0  0
 10 38  1  0  0  0
 10 11  1  0  0  0
 11 12  2  0  0  0
 11 39  1  0  0  0
 12 40  1  0  0  0
 12 13  1  0  0  0
 13 15  2  0  0  0
 13 14  1  0  0  0
 15 16  1  0  0  0
 15 17  1  0  0  0
 16 41  1  0  0  0
 16 42  1  0  0  0
 16 43  1  0  0  0
 17 25  1  0  0  0
 17 18  2  0  0  0
 18 19  1  0  0  0
 18 44  1  0  0  0
 19 23  1  0  0  0
 19 20  2  0  0  0
 20 21  1  0  0  0
 21 22  1  0  0  0
 21 27  1  0  0  0
 22 23  2  0  0  0
 22 26  1  0  0  0
 23 24  1  0  0  0
 24 25  2  0  0  0
 24 45  1  0  0  0
 25 46  1  0  0  0
 26 47  1  0  0  0
 26 48  1  0  0  0
 26 49  1  0  0  0
 27 50  1  0  0  0
 27 51  1  0  0  0
 27 52  1  0  0  0
 28 29  2  0  0  0
 28 30  2  0  0  0
 28 31  1  0  0  0
 31 53  1  0  0  0
 31 54  1  0  0  0
M  CHG  1  15   1
M  END
> <s_m_source_file>
/Users/andrea/Development/mcce-charges/epik_inhibitors/output/Pazopanib/Pazopanib-input.mol2

> <i_m_source_file_index>
1

> <r_lp_tautomer_probability>
0.499942863283806

> <r_epik_Ionization_Penalty>
  0.7391

> <r_epik_Ionization_Penalty_Charging>
  0.0000

> <r_epik_Ionization_Penalty_Neutral>
  0.7391

> <r_epik_State_Penalty>
  3.3728

> <i_epik_Tot_Q>
1

> <s_epik_Chemistry_Notes>
This compound has an imine and may undergo hydrolysis.

$$$$
5-[[4-[(2,3-dimethylindazol-6-yl)-methyl-amino]pyrimidin-2-yl]amino]-2-methyl-benzenesulfonamide
                    3D
 Structure written by MMmdl.
 55 58  0  0  1  0            999 V2000
   -5.7509   -5.0014    2.9714 C   0  0  0  0  0  0
   -4.8684   -4.7117    1.8015 C   0  0  0  0  0  0
   -4.5345   -3.4035    1.4508 C   0  0  0  0  0  0
   -3.7080   -3.1653    0.3526 C   0  0  0  0  0  0
   -3.2156   -4.2351   -0.3949 C   0  0  0  0  0  0
   -3.5497   -5.5432   -0.0441 C   0  0  0  0  0  0
   -4.3761   -5.7815    1.0540 C   0  0  0  0  0  0
   -2.3807   -3.9948   -1.5043 N   0  0  0  0  0  0
   -1.4559   -2.9706   -1.8017 C   0  0  0  0  0  0
   -0.8185   -3.0604   -2.9845 N   0  0  0  0  0  0
    0.0579   -2.0660   -3.2361 C   0  0  0  0  0  0
    0.3053   -1.0238   -2.3659 C   0  0  0  0  0  0
   -0.4151   -1.0447   -1.1892 C   0  0  0  0  0  0
   -1.3053   -2.0078   -0.8721 N   0  0  0  0  0  0
   -0.1931    0.0118   -0.2692 N   0  3  0  0  0  0
    0.1878    1.2933   -0.8762 C   0  0  0  0  0  0
   -0.3059   -0.0675    1.1452 C   0  0  0  0  0  0
   -1.2422    0.7721    1.7878 C   0  0  0  0  0  0
   -1.2737    0.6131    3.1855 C   0  0  0  0  0  0
   -2.0240    1.2296    4.1158 N   0  0  0  0  0  0
   -1.6339    0.6849    5.2846 N   0  0  0  0  0  0
   -0.6603   -0.2647    5.1754 C   0  0  0  0  0  0
   -0.4033   -0.3372    3.8356 C   0  0  0  0  0  0
    0.5262   -1.1757    3.2334 C   0  0  0  0  0  0
    0.5360   -0.9952    1.8361 C   0  0  0  0  0  0
   -0.1022   -0.9769    6.3405 C   0  0  0  0  0  0
   -2.2603    1.1362    6.5064 C   0  0  0  0  0  0
   -5.1346   -2.0382    2.3665 S   0  0  0  0  0  0
   -6.5791   -1.9798    2.2028 O   0  0  0  0  0  0
   -4.5562   -2.0912    3.7006 O   0  0  0  0  0  0
   -4.4270   -0.7409    1.5104 N   0  0  0  0  0  0
   -6.0498   -4.0562    3.4481 H   0  0  0  0  0  0
   -5.2051   -5.6217    3.6976 H   0  0  0  0  0  0
   -6.6474   -5.5395    2.6300 H   0  0  0  0  0  0
   -3.4466   -2.1458    0.0780 H   0  0  0  0  0  0
   -3.1715   -6.3842   -0.6197 H   0  0  0  0  0  0
   -4.6305   -6.8044    1.3188 H   0  0  0  0  0  0
   -1.0308   -3.9012   -3.6612 H   0  0  0  0  0  0
    0.5411   -2.1128   -4.1104 H   0  0  0  0  0  0
    0.9710   -0.3178   -2.6078 H   0  0  0  0  0  0
    0.3366    2.0435   -0.0856 H   0  0  0  0  0  0
   -0.6100    1.6290   -1.5549 H   0  0  0  0  0  0
    1.1223    1.1673   -1.4426 H   0  0  0  0  0  0
   -1.8039    1.3995    1.2485 H   0  0  0  0  0  0
    1.1420   -1.8407    3.6559 H   0  0  0  0  0  0
    1.1583   -1.5325    1.2668 H   0  0  0  0  0  0
    0.6641   -1.6898    6.0018 H   0  0  0  0  0  0
   -0.9064   -1.5211    6.8572 H   0  0  0  0  0  0
    0.3518   -0.2510    7.0310 H   0  0  0  0  0  0
   -1.8295    0.5942    7.3612 H   0  0  0  0  0  0
   -3.3420    0.9427    6.4570 H   0  0  0  0  0  0
   -2.0861    2.2152    6.6308 H   0  0  0  0  0  0
   -4.7195    0.2104    1.9787 H   0  0  0  0  0  0
   -4.7740   -0.7578    0.4667 H   0  0  0  0  0  0
   -2.5487   -4.8100   -2.2235 H   0  0  0  0  0  0
  1  2  1  0  0  0
  1 32  1  0  0  0
  1 33  1  0  0  0
  1 34  1  0  0  0
  2  7  2  0  0  0
  2  3  1  0  0  0
  3  4  2  0  0  0
  3 28  1  0  0  0
  4  5  1  0  0  0
  4 35  1  0  0  0
  5  6  2  0  0  0
  5  8  1  0  0  0
  6  7  1  0  0  0
  6 36  1  0  0  0
  7 37  1  0  0  0
  8  9  1  0  0  0
  8 55  1  0  0  0
  9 14  2  0  0  0
  9 10  1  0  0  0
 10 38  1  0  0  0
 10 11  1  0  0  0
 11 12  2  0  0  0
 11 39  1  0  0  0
 12 40  1  0  0  0
 12 13  1  0  0  0
 13 15  2  0  0  0
 13 14  1  0  0  0
 15 16  1  0  0  0
 15 17  1  0  0  0
 16 41  1  0  0  0
 16 42  1  0  0  0
 16 43  1  0  0  0
 17 25  1  0  0  0
 17 18  2  0  0  0
 18 19  1  0  0  0
 18 44  1  0  0  0
 19 23  1  0  0  0
 19 20  2  0  0  0
 20 21  1  0  0  0
 21 22  1  0  0  0
 21 27  1  0  0  0
 22 23  2  0  0  0
 22 26  1  0  0  0
 23 24  1  0  0  0
 24 25  2  0  0  0
 24 45  1  0  0  0
 25 46  1  0  0  0
 26 47  1  0  0  0
 26 48  1  0  0  0
 26 49  1  0  0  0
 27 50  1  0  0  0
 27 51  1  0  0  0
 27 52  1  0  0  0
 28 29  2  0  0  0
 28 30  2  0  0  0
 28 31  1  0  0  0
 31 53  1  0  0  0
 31 54  1  0  0  0
M  CHG  1  15   1
M  END
> <s_m_source_file>
/Users/andrea/Development/mcce-charges/epik_inhibitors/output/Pazopanib/Pazopanib-input.mol2

> <i_m_source_file_index>
1

> <r_lp_tautomer_probability>
0.499942863283806

> <r_epik_Ionization_Penalty>
  0.7391

> <r_epik_Ionization_Penalty_Charging>
  0.0000

> <r_epik_Ionization_Penalty_Neutral>
  0.7391

> <r_epik_State_Penalty>
  3.3945

> <i_epik_Tot_Q>
1

> <s_epik_Chemistry_Notes>
This compound has an imine and may undergo hydrolysis.

$$$$
5-[[4-[(2,3-dimethylindazol-6-yl)-methyl-amino]pyrimidin-2-yl]amino]-2-methyl-benzenesulfonamide
                    3D
 Structure written by MMmdl.
 55 58  0  0  1  0            999 V2000
   -5.7603   -4.9945    2.9658 C   0  0  0  0  0  0
   -4.8761   -4.7061    1.7969 C   0  0  0  0  0  0
   -4.5403   -3.3984    1.4463 C   0  0  0  0  0  0
   -3.7122   -3.1613    0.3491 C   0  0  0  0  0  0
   -3.2200   -4.2319   -0.3975 C   0  0  0  0  0  0
   -3.5560   -5.5395   -0.0468 C   0  0  0  0  0  0
   -4.3840   -5.7766    1.0503 C   0  0  0  0  0  0
   -2.3835   -3.9928   -1.5060 N   0  0  0  0  0  0
   -1.4572   -2.9696   -1.8025 C   0  0  0  0  0  0
   -0.8196   -3.0596   -2.9852 N   0  3  0  0  0  0
    0.0569   -2.0652   -3.2367 C   0  0  0  0  0  0
    0.3027   -1.0219   -2.3675 C   0  0  0  0  0  0
   -0.4151   -1.0447   -1.1892 C   0  0  0  0  0  0
   -1.3067   -2.0068   -0.8730 N   0  0  0  0  0  0
   -0.1931    0.0118   -0.2692 N   0  0  0  0  0  0
   -0.3798   -0.3454    1.1426 C   0  0  0  0  0  0
    0.4077    1.2666   -0.5590 C   0  0  0  0  0  0
    1.5870    1.6175    0.1342 C   0  0  0  0  0  0
    2.0987    2.8771   -0.2282 C   0  0  0  0  0  0
    3.1862    3.5350    0.2111 N   0  0  0  0  0  0
    3.1877    4.6915   -0.4799 N   0  0  0  0  0  0
    2.1531    4.8334   -1.3580 C   0  0  0  0  0  0
    1.4303    3.6821   -1.2225 C   0  0  0  0  0  0
    0.2718    3.3661   -1.9209 C   0  0  0  0  0  0
   -0.2175    2.1015   -1.5382 C   0  0  0  0  0  0
    1.9811    6.0279   -2.2064 C   0  0  0  0  0  0
    4.2480    5.6440   -0.2407 C   0  0  0  0  0  0
   -5.1401   -2.0322    2.3609 S   0  0  0  0  0  0
   -6.5843   -1.9722    2.1954 O   0  0  0  0  0  0
   -4.5634   -2.0854    3.6957 O   0  0  0  0  0  0
   -4.4300   -0.7359    1.5053 N   0  0  0  0  0  0
   -6.0588   -4.0488    3.4418 H   0  0  0  0  0  0
   -5.2161   -5.6152    3.6928 H   0  0  0  0  0  0
   -6.6570   -5.5318    2.6235 H   0  0  0  0  0  0
   -3.4494   -2.1422    0.0745 H   0  0  0  0  0  0
   -3.1780   -6.3811   -0.6217 H   0  0  0  0  0  0
   -4.6398   -6.7992    1.3151 H   0  0  0  0  0  0
   -2.3859   -4.6895   -2.3572 H   0  0  0  0  0  0
    0.5726   -2.1325   -4.1888 H   0  0  0  0  0  0
    1.0141   -0.2418   -2.6085 H   0  0  0  0  0  0
   -0.1858    0.5354    1.7724 H   0  0  0  0  0  0
    0.3194   -1.1505    1.4127 H   0  0  0  0  0  0
   -1.4129   -0.6887    1.3004 H   0  0  0  0  0  0
    2.0524    0.9766    0.8724 H   0  0  0  0  0  0
   -0.2141    3.9853   -2.6618 H   0  0  0  0  0  0
   -1.1283    1.7449   -2.0210 H   0  0  0  0  0  0
    1.0802    5.9105   -2.8265 H   0  0  0  0  0  0
    2.8608    6.1458   -2.8563 H   0  0  0  0  0  0
    1.8741    6.9180   -1.5690 H   0  0  0  0  0  0
    4.1001    6.5259   -0.8814 H   0  0  0  0  0  0
    5.2175    5.1797   -0.4741 H   0  0  0  0  0  0
    4.2334    5.9514    0.8154 H   0  0  0  0  0  0
   -4.7221    0.2159    1.9730 H   0  0  0  0  0  0
   -4.7757   -0.7527    0.4612 H   0  0  0  0  0  0
   -1.0319   -3.9005   -3.6619 H   0  0  0  0  0  0
  1  2  1  0  0  0
  1 32  1  0  0  0
  1 33  1  0  0  0
  1 34  1  0  0  0
  2  7  2  0  0  0
  2  3  1  0  0  0
  3  4  2  0  0  0
  3 28  1  0  0  0
  4  5  1  0  0  0
  4 35  1  0  0  0
  5  6  2  0  0  0
  5  8  1  0  0  0
  6  7  1  0  0  0
  6 36  1  0  0  0
  7 37  1  0  0  0
  8  9  1  0  0  0
  8 38  1  0  0  0
  9 14  2  0  0  0
  9 10  1  0  0  0
 10 11  2  0  0  0
 10 55  1  0  0  0
 11 12  1  0  0  0
 11 39  1  0  0  0
 12 13  2  0  0  0
 12 40  1  0  0  0
 13 14  1  0  0  0
 13 15  1  0  0  0
 15 16  1  0  0  0
 15 17  1  0  0  0
 16 41  1  0  0  0
 16 42  1  0  0  0
 16 43  1  0  0  0
 17 25  1  0  0  0
 17 18  2  0  0  0
 18 19  1  0  0  0
 18 44  1  0  0  0
 19 23  1  0  0  0
 19 20  2  0  0  0
 20 21  1  0  0  0
 21 22  1  0  0  0
 21 27  1  0  0  0
 22 23  2  0  0  0
 22 26  1  0  0  0
 23 24  1  0  0  0
 24 25  2  0  0  0
 24 45  1  0  0  0
 25 46  1  0  0  0
 26 47  1  0  0  0
 26 48  1  0  0  0
 26 49  1  0  0  0
 27 50  1  0  0  0
 27 51  1  0  0  0
 27 52  1  0  0  0
 28 29  2  0  0  0
 28 30  2  0  0  0
 28 31  1  0  0  0
 31 53  1  0  0  0
 31 54  1  0  0  0
M  CHG  1  10   1
M  END
> <s_m_source_file>
/Users/andrea/Development/mcce-charges/epik_inhibitors/output/Pazopanib/Pazopanib-input.mol2

> <i_m_source_file_index>
1

> <r_lp_tautomer_probability>
0.499942863283806

> <r_epik_Ionization_Penalty>
  3.1651

> <r_epik_Ionization_Penalty_Charging>
  3.1614

> <r_epik_Ionization_Penalty_Neutral>
  0.0038

> <r_epik_State_Penalty>
  3.4651

> <i_epik_Tot_Q>
1

$$$$
5-[[4-[(2,3-dimethylindazol-6-yl)-methyl-amino]pyrimidin-2-yl]amino]-2-methyl-benzenesulfonamide
                    3D
 Structure written by MMmdl.
 55 58  0  0  1  0            999 V2000
   -5.7603   -4.9945    2.9658 C   0  0  0  0  0  0
   -4.8761   -4.7061    1.7969 C   0  0  0  0  0  0
   -4.5403   -3.3984    1.4463 C   0  0  0  0  0  0
   -3.7122   -3.1613    0.3491 C   0  0  0  0  0  0
   -3.2200   -4.2319   -0.3975 C   0  0  0  0  0  0
   -3.5560   -5.5395   -0.0468 C   0  0  0  0  0  0
   -4.3840   -5.7766    1.0503 C   0  0  0  0  0  0
   -2.3835   -3.9928   -1.5060 N   0  0  0  0  0  0
   -1.4572   -2.9696   -1.8025 C   0  0  0  0  0  0
   -0.8196   -3.0596   -2.9852 N   0  0  0  0  0  0
    0.0569   -2.0652   -3.2367 C   0  0  0  0  0  0
    0.3027   -1.0219   -2.3675 C   0  0  0  0  0  0
   -0.4151   -1.0447   -1.1892 C   0  0  0  0  0  0
   -1.3067   -2.0068   -0.8730 N   0  0  0  0  0  0
   -0.1931    0.0118   -0.2692 N   0  0  0  0  0  0
   -0.3798   -0.3454    1.1426 C   0  0  0  0  0  0
    0.4077    1.2666   -0.5590 C   0  0  0  0  0  0
    1.5870    1.6175    0.1342 C   0  0  0  0  0  0
    2.0987    2.8771   -0.2282 C   0  0  0  0  0  0
    3.1862    3.5350    0.2111 N   0  3  0  0  0  0
    3.1877    4.6915   -0.4799 N   0  0  0  0  0  0
    2.1531    4.8334   -1.3580 C   0  0  0  0  0  0
    1.4303    3.6821   -1.2225 C   0  0  0  0  0  0
    0.2718    3.3661   -1.9209 C   0  0  0  0  0  0
   -0.2175    2.1015   -1.5382 C   0  0  0  0  0  0
    1.9811    6.0279   -2.2064 C   0  0  0  0  0  0
    4.2480    5.6440   -0.2407 C   0  0  0  0  0  0
   -5.1401   -2.0322    2.3609 S   0  0  0  0  0  0
   -6.5843   -1.9722    2.1954 O   0  0  0  0  0  0
   -4.5634   -2.0854    3.6957 O   0  0  0  0  0  0
   -4.4300   -0.7359    1.5053 N   0  0  0  0  0  0
   -6.0588   -4.0488    3.4418 H   0  0  0  0  0  0
   -5.2161   -5.6152    3.6928 H   0  0  0  0  0  0
   -6.6570   -5.5318    2.6235 H   0  0  0  0  0  0
   -3.4494   -2.1422    0.0745 H   0  0  0  0  0  0
   -3.1780   -6.3811   -0.6217 H   0  0  0  0  0  0
   -4.6398   -6.7992    1.3151 H   0  0  0  0  0  0
   -2.3859   -4.6895   -2.3572 H   0  0  0  0  0  0
    0.5726   -2.1325   -4.1888 H   0  0  0  0  0  0
    1.0141   -0.2418   -2.6085 H   0  0  0  0  0  0
   -0.1858    0.5354    1.7724 H   0  0  0  0  0  0
    0.3194   -1.1505    1.4127 H   0  0  0  0  0  0
   -1.4129   -0.6887    1.3004 H   0  0  0  0  0  0
    2.0524    0.9766    0.8724 H   0  0  0  0  0  0
   -0.2141    3.9853   -2.6618 H   0  0  0  0  0  0
   -1.1283    1.7449   -2.0210 H   0  0  0  0  0  0
    1.0802    5.9105   -2.8265 H   0  0  0  0  0  0
    2.8608    6.1458   -2.8563 H   0  0  0  0  0  0
    1.8741    6.9180   -1.5690 H   0  0  0  0  0  0
    4.1001    6.5259   -0.8814 H   0  0  0  0  0  0
    5.2175    5.1797   -0.4741 H   0  0  0  0  0  0
    4.2334    5.9514    0.8154 H   0  0  0  0  0  0
   -4.7221    0.2159    1.9730 H   0  0  0  0  0  0
   -4.7757   -0.7527    0.4612 H   0  0  0  0  0  0
    3.8316    3.0808    0.9773 H   0  0  0  0  0  0
  1  2  1  0  0  0
  1 32  1  0  0  0
  1 33  1  0  0  0
  1 34  1  0  0  0
  2  7  2  0  0  0
  2  3  1  0  0  0
  3  4  2  0  0  0
  3 28  1  0  0  0
  4  5  1  0  0  0
  4 35  1  0  0  0
  5  6  2  0  0  0
  5  8  1  0  0  0
  6  7  1  0  0  0
  6 36  1  0  0  0
  7 37  1  0  0  0
  8  9  1  0  0  0
  8 38  1  0  0  0
  9 14  2  0  0  0
  9 10  1  0  0  0
 10 11  2  0  0  0
 11 12  1  0  0  0
 11 39  1  0  0  0
 12 13  2  0  0  0
 12 40  1  0  0  0
 13 14  1  0  0  0
 13 15  1  0  0  0
 15 16  1  0  0  0
 15 17  1  0  0  0
 16 41  1  0  0  0
 16 42  1  0  0  0
 16 43  1  0  0  0
 17 25  1  0  0  0
 17 18  2  0  0  0
 18 19  1  0  0  0
 18 44  1  0  0  0
 19 23  1  0  0  0
 19 20  2  0  0  0
 20 21  1  0  0  0
 20 55  1  0  0  0
 21 22  1  0  0  0
 21 27  1  0  0  0
 22 23  2  0  0  0
 22 26  1  0  0  0
 23 24  1  0  0  0
 24 25  2  0  0  0
 24 45  1  0  0  0
 25 46  1  0  0  0
 26 47  1  0  0  0
 26 48  1  0  0  0
 26 49  1  0  0  0
 27 50  1  0  0  0
 27 51  1  0  0  0
 27 52  1  0  0  0
 28 29  2  0  0  0
 28 30  2  0  0  0
 28 31  1  0  0  0
 31 53  1  0  0  0
 31 54  1  0  0  0
M  CHG  1  20   1
M  END
> <s_m_source_file>
/Users/andrea/Development/mcce-charges/epik_inhibitors/output/Pazopanib/Pazopanib-input.mol2

> <i_m_source_file_index>
1

> <r_epik_Ionization_Penalty>
  3.4880

> <r_epik_Ionization_Penalty_Charging>
  3.4749

> <r_epik_Ionization_Penalty_Neutral>
  0.0131

> <r_epik_State_Penalty>
  4.3969

> <i_epik_Tot_Q>
1

$$$$
5-[[4-[(2,3-dimethylindazol-6-yl)-methyl-amino]pyrimidin-2-yl]amino]-2-methyl-benzenesulfonamide
                    3D
 Structure written by MMmdl.
 53 56  0  0  1  0            999 V2000
   -5.7603   -4.9945    2.9658 C   0  0  0  0  0  0
   -4.8761   -4.7061    1.7969 C   0  0  0  0  0  0
   -4.5403   -3.3984    1.4463 C   0  0  0  0  0  0
   -3.7122   -3.1613    0.3491 C   0  0  0  0  0  0
   -3.2200   -4.2319   -0.3975 C   0  0  0  0  0  0
   -3.5560   -5.5395   -0.0468 C   0  0  0  0  0  0
   -4.3840   -5.7766    1.0503 C   0  0  0  0  0  0
   -2.3835   -3.9928   -1.5060 N   0  0  0  0  0  0
   -1.4572   -2.9696   -1.8025 C   0  0  0  0  0  0
   -0.8196   -3.0596   -2.9852 N   0  0  0  0  0  0
    0.0569   -2.0652   -3.2367 C   0  0  0  0  0  0
    0.3027   -1.0219   -2.3675 C   0  0  0  0  0  0
   -0.4151   -1.0447   -1.1892 C   0  0  0  0  0  0
   -1.3067   -2.0068   -0.8730 N   0  0  0  0  0  0
   -0.1931    0.0118   -0.2692 N   0  0  0  0  0  0
   -0.3798   -0.3454    1.1426 C   0  0  0  0  0  0
    0.4077    1.2666   -0.5590 C   0  0  0  0  0  0
    1.5870    1.6175    0.1342 C   0  0  0  0  0  0
    2.0987    2.8771   -0.2282 C   0  0  0  0  0  0
    3.1862    3.5350    0.2111 N   0  0  0  0  0  0
    3.1877    4.6915   -0.4799 N   0  0  0  0  0  0
    2.1531    4.8334   -1.3580 C   0  0  0  0  0  0
    1.4303    3.6821   -1.2225 C   0  0  0  0  0  0
    0.2718    3.3661   -1.9209 C   0  0  0  0  0  0
   -0.2175    2.1015   -1.5382 C   0  0  0  0  0  0
    1.9811    6.0279   -2.2064 C   0  0  0  0  0  0
    4.2480    5.6440   -0.2407 C   0  0  0  0  0  0
   -5.1401   -2.0322    2.3609 S   0  0  0  0  0  0
   -6.5843   -1.9722    2.1954 O   0  0  0  0  0  0
   -4.5634   -2.0854    3.6957 O   0  0  0  0  0  0
   -4.4300   -0.7359    1.5053 N   0  5  0  0  0  0
   -6.0588   -4.0488    3.4418 H   0  0  0  0  0  0
   -5.2161   -5.6152    3.6928 H   0  0  0  0  0  0
   -6.6570   -5.5318    2.6235 H   0  0  0  0  0  0
   -3.4494   -2.1422    0.0745 H   0  0  0  0  0  0
   -3.1780   -6.3811   -0.6217 H   0  0  0  0  0  0
   -4.6398   -6.7992    1.3151 H   0  0  0  0  0  0
   -2.3859   -4.6895   -2.3572 H   0  0  0  0  0  0
    0.5726   -2.1325   -4.1888 H   0  0  0  0  0  0
    1.0141   -0.2418   -2.6085 H   0  0  0  0  0  0
   -0.1858    0.5354    1.7724 H   0  0  0  0  0  0
    0.3194   -1.1505    1.4127 H   0  0  0  0  0  0
   -1.4129   -0.6887    1.3004 H   0  0  0  0  0  0
    2.0524    0.9766    0.8724 H   0  0  0  0  0  0
   -0.2141    3.9853   -2.6618 H   0  0  0  0  0  0
   -1.1283    1.7449   -2.0210 H   0  0  0  0  0  0
    1.0802    5.9105   -2.8265 H   0  0  0  0  0  0
    2.8608    6.1458   -2.8563 H   0  0  0  0  0  0
    1.8741    6.9180   -1.5690 H   0  0  0  0  0  0
    4.1001    6.5259   -0.8814 H   0  0  0  0  0  0
    5.2175    5.1797   -0.4741 H   0  0  0  0  0  0
    4.2334    5.9514    0.8154 H   0  0  0  0  0  0
   -4.6097    0.3002    1.8281 H   0  0  0  0  0  0
  1  2  1  0  0  0
  1 32  1  0  0  0
  1 33  1  0  0  0
  1 34  1  0  0  0
  2  7  2  0  0  0
  2  3  1  0  0  0
  3  4  2  0  0  0
  3 28  1  0  0  0
  4  5  1  0  0  0
  4 35  1  0  0  0
  5  6  2  0  0  0
  5  8  1  0  0  0
  6  7  1  0  0  0
  6 36  1  0  0  0
  7 37  1  0  0  0
  8  9  1  0  0  0
  8 38  1  0  0  0
  9 14  2  0  0  0
  9 10  1  0  0  0
 10 11  2  0  0  0
 11 12  1  0  0  0
 11 39  1  0  0  0
 12 13  2  0  0  0
 12 40  1  0  0  0
 13 14  1  0  0  0
 13 15  1  0  0  0
 15 16  1  0  0  0
 15 17  1  0  0  0
 16 41  1  0  0  0
 16 42  1  0  0  0
 16 43  1  0  0  0
 17 25  1  0  0  0
 17 18  2  0  0  0
 18 19  1  0  0  0
 18 44  1  0  0  0
 19 23  1  0  0  0
 19 20  2  0  0  0
 20 21  1  0  0  0
 21 22  1  0  0  0
 21 27  1  0  0  0
 22 23  2  0  0  0
 22 26  1  0  0  0
 23 24  1  0  0  0
 24 25  2  0  0  0
 24 45  1  0  0  0
 25 46  1  0  0  0
 26 47  1  0  0  0
 26 48  1  0  0  0
 26 49  1  0  0  0
 27 50  1  0  0  0
 27 51  1  0  0  0
 27 52  1  0  0  0
 28 29  2  0  0  0
 28 30  2  0  0  0
 28 31  1  0  0  0
 31 53  1  0  0  0
M  CHG  1  31  -1
M  END
> <s_m_source_file>
/Users/andrea/Development/mcce-charges/epik_inhibitors/output/Pazopanib/Pazopanib-input.mol2

> <i_m_source_file_index>
1

> <r_lp_tautomer_probability>
0.99999893677273

> <r_epik_Ionization_Penalty>
  3.9637

> <r_epik_Ionization_Penalty_Charging>
  3.9496

> <r_epik_Ionization_Penalty_Neutral>
  0.0140

> <r_epik_State_Penalty>
  5.2957

> <i_epik_Tot_Q>
-1

$$$$
5-[[4-[(2,3-dimethylindazol-6-yl)-methyl-amino]pyrimidin-2-yl]amino]-2-methyl-benzenesulfonamide
                    3D
 Structure written by MMmdl.
 56 59  0  0  1  0            999 V2000
   -5.7509   -5.0014    2.9714 C   0  0  0  0  0  0
   -4.8684   -4.7117    1.8015 C   0  0  0  0  0  0
   -4.5345   -3.4035    1.4508 C   0  0  0  0  0  0
   -3.7080   -3.1653    0.3526 C   0  0  0  0  0  0
   -3.2156   -4.2351   -0.3949 C   0  0  0  0  0  0
   -3.5497   -5.5432   -0.0441 C   0  0  0  0  0  0
   -4.3761   -5.7815    1.0540 C   0  0  0  0  0  0
   -2.3807   -3.9948   -1.5043 N   0  0  0  0  0  0
   -1.4559   -2.9706   -1.8017 C   0  0  0  0  0  0
   -0.8185   -3.0604   -2.9845 N   0  0  0  0  0  0
    0.0579   -2.0660   -3.2361 C   0  0  0  0  0  0
    0.3053   -1.0238   -2.3659 C   0  0  0  0  0  0
   -0.4151   -1.0447   -1.1892 C   0  0  0  0  0  0
   -1.3053   -2.0078   -0.8721 N   0  0  0  0  0  0
   -0.1931    0.0118   -0.2692 N   0  3  0  0  0  0
   -0.3798   -0.3454    1.1426 C   0  0  0  0  0  0
    0.1828    1.3435   -0.5930 C   0  0  0  0  0  0
    1.3995    1.8381   -0.0738 C   0  0  0  0  0  0
    1.6762    3.1638   -0.4555 C   0  0  0  0  0  0
    2.7223    3.9554   -0.1597 N   0  3  0  0  0  0
    2.4617    5.1160   -0.7922 N   0  0  0  0  0  0
    1.2922    5.1333   -1.4947 C   0  0  0  0  0  0
    0.7588    3.8908   -1.3001 C   0  0  0  0  0  0
   -0.4429    3.4337   -1.8261 C   0  0  0  0  0  0
   -0.6938    2.1056   -1.4280 C   0  0  0  0  0  0
    0.8319    6.3111   -2.2544 C   0  0  0  0  0  0
    3.4106    6.1999   -0.6770 C   0  0  0  0  0  0
   -5.1346   -2.0382    2.3665 S   0  0  0  0  0  0
   -6.5791   -1.9798    2.2028 O   0  0  0  0  0  0
   -4.5562   -2.0912    3.7006 O   0  0  0  0  0  0
   -4.4270   -0.7409    1.5104 N   0  0  0  0  0  0
   -6.0498   -4.0562    3.4481 H   0  0  0  0  0  0
   -5.2051   -5.6217    3.6976 H   0  0  0  0  0  0
   -6.6474   -5.5395    2.6300 H   0  0  0  0  0  0
   -3.4466   -2.1458    0.0780 H   0  0  0  0  0  0
   -3.1715   -6.3842   -0.6197 H   0  0  0  0  0  0
   -4.6305   -6.8044    1.3188 H   0  0  0  0  0  0
   -1.0308   -3.9012   -3.6612 H   0  0  0  0  0  0
    0.5411   -2.1128   -4.1104 H   0  0  0  0  0  0
    0.9710   -0.3178   -2.6078 H   0  0  0  0  0  0
   -0.1858    0.5354    1.7724 H   0  0  0  0  0  0
    0.3194   -1.1505    1.4127 H   0  0  0  0  0  0
   -1.4129   -0.6887    1.3004 H   0  0  0  0  0  0
    1.9705    1.2548    0.5039 H   0  0  0  0  0  0
   -1.0978    3.9127   -2.4106 H   0  0  0  0  0  0
   -1.5265    1.6418   -1.7306 H   0  0  0  0  0  0
   -0.1318    6.0845   -2.7339 H   0  0  0  0  0  0
    1.5748    6.5633   -3.0254 H   0  0  0  0  0  0
    0.7096    7.1638   -1.5703 H   0  0  0  0  0  0
    3.0481    7.0669   -1.2488 H   0  0  0  0  0  0
    4.3842    5.8788   -1.0758 H   0  0  0  0  0  0
    3.5218    6.4790    0.3811 H   0  0  0  0  0  0
   -4.7195    0.2104    1.9787 H   0  0  0  0  0  0
   -4.7740   -0.7578    0.4667 H   0  0  0  0  0  0
   -2.5487   -4.8100   -2.2235 H   0  0  0  0  0  0
    3.5348    3.5776    0.4785 H   0  0  0  0  0  0
  1  2  1  0  0  0
  1 32  1  0  0  0
  1 33  1  0  0  0
  1 34  1  0  0  0
  2  7  2  0  0  0
  2  3  1  0  0  0
  3  4  2  0  0  0
  3 28  1  0  0  0
  4  5  1  0  0  0
  4 35  1  0  0  0
  5  6  2  0  0  0
  5  8  1  0  0  0
  6  7  1  0  0  0
  6 36  1  0  0  0
  7 37  1  0  0  0
  8  9  1  0  0  0
  8 55  1  0  0  0
  9 14  2  0  0  0
  9 10  1  0  0  0
 10 38  1  0  0  0
 10 11  1  0  0  0
 11 12  2  0  0  0
 11 39  1  0  0  0
 12 40  1  0  0  0
 12 13  1  0  0  0
 13 15  2  0  0  0
 13 14  1  0  0  0
 15 16  1  0  0  0
 15 17  1  0  0  0
 16 41  1  0  0  0
 16 42  1  0  0  0
 16 43  1  0  0  0
 17 25  1  0  0  0
 17 18  2  0  0  0
 18 19  1  0  0  0
 18 44  1  0  0  0
 19 23  1  0  0  0
 19 20  2  0  0  0
 20 21  1  0  0  0
 20 56  1  0  0  0
 21 22  1  0  0  0
 21 27  1  0  0  0
 22 23  2  0  0  0
 22 26  1  0  0  0
 23 24  1  0  0  0
 24 25  2  0  0  0
 24 45  1  0  0  0
 25 46  1  0  0  0
 26 47  1  0  0  0
 26 48  1  0  0  0
 26 49  1  0  0  0
 27 50  1  0  0  0
 27 51  1  0  0  0
 27 52  1  0  0  0
 28 29  2  0  0  0
 28 30  2  0  0  0
 28 31  1  0  0  0
 31 53  1  0  0  0
 31 54  1  0  0  0
M  CHG  2  15   1  20   1
M  END
> <s_m_source_file>
/Users/andrea/Development/mcce-charges/epik_inhibitors/output/Pazopanib/Pazopanib-input.mol2

> <i_m_source_file_index>
1

> <r_lp_tautomer_probability>
0.499942863283806

> <r_epik_Ionization_Penalty>
  4.2682

> <r_epik_Ionization_Penalty_Charging>
  3.0927

> <r_epik_Ionization_Penalty_Neutral>
  1.1755

> <r_epik_State_Penalty>
  6.9037

> <i_epik_Tot_Q>
2

> <s_epik_Chemistry_Notes>
This compound has an imine and may undergo hydrolysis.

$$$$
5-[[4-[(2,3-dimethylindazol-6-yl)-methyl-amino]pyrimidin-2-yl]amino]-2-methyl-benzenesulfonamide
                    3D
 Structure written by MMmdl.
 56 59  0  0  1  0            999 V2000
   -5.7509   -5.0014    2.9714 C   0  0  0  0  0  0
   -4.8684   -4.7117    1.8015 C   0  0  0  0  0  0
   -4.5345   -3.4035    1.4508 C   0  0  0  0  0  0
   -3.7080   -3.1653    0.3526 C   0  0  0  0  0  0
   -3.2156   -4.2351   -0.3949 C   0  0  0  0  0  0
   -3.5497   -5.5432   -0.0441 C   0  0  0  0  0  0
   -4.3761   -5.7815    1.0540 C   0  0  0  0  0  0
   -2.3807   -3.9948   -1.5043 N   0  0  0  0  0  0
   -1.4559   -2.9706   -1.8017 C   0  0  0  0  0  0
   -0.8185   -3.0604   -2.9845 N   0  0  0  0  0  0
    0.0579   -2.0660   -3.2361 C   0  0  0  0  0  0
    0.3053   -1.0238   -2.3659 C   0  0  0  0  0  0
   -0.4151   -1.0447   -1.1892 C   0  0  0  0  0  0
   -1.3053   -2.0078   -0.8721 N   0  0  0  0  0  0
   -0.1931    0.0118   -0.2692 N   0  3  0  0  0  0
    0.1878    1.2933   -0.8762 C   0  0  0  0  0  0
   -0.3059   -0.0675    1.1452 C   0  0  0  0  0  0
   -1.2422    0.7721    1.7878 C   0  0  0  0  0  0
   -1.2737    0.6131    3.1855 C   0  0  0  0  0  0
   -2.0240    1.2296    4.1158 N   0  3  0  0  0  0
   -1.6339    0.6849    5.2846 N   0  0  0  0  0  0
   -0.6603   -0.2647    5.1754 C   0  0  0  0  0  0
   -0.4033   -0.3372    3.8356 C   0  0  0  0  0  0
    0.5262   -1.1757    3.2334 C   0  0  0  0  0  0
    0.5360   -0.9952    1.8361 C   0  0  0  0  0  0
   -0.1022   -0.9769    6.3405 C   0  0  0  0  0  0
   -2.2603    1.1362    6.5064 C   0  0  0  0  0  0
   -5.1346   -2.0382    2.3665 S   0  0  0  0  0  0
   -6.5791   -1.9798    2.2028 O   0  0  0  0  0  0
   -4.5562   -2.0912    3.7006 O   0  0  0  0  0  0
   -4.4270   -0.7409    1.5104 N   0  0  0  0  0  0
   -6.0498   -4.0562    3.4481 H   0  0  0  0  0  0
   -5.2051   -5.6217    3.6976 H   0  0  0  0  0  0
   -6.6474   -5.5395    2.6300 H   0  0  0  0  0  0
   -3.4466   -2.1458    0.0780 H   0  0  0  0  0  0
   -3.1715   -6.3842   -0.6197 H   0  0  0  0  0  0
   -4.6305   -6.8044    1.3188 H   0  0  0  0  0  0
   -1.0308   -3.9012   -3.6612 H   0  0  0  0  0  0
    0.5411   -2.1128   -4.1104 H   0  0  0  0  0  0
    0.9710   -0.3178   -2.6078 H   0  0  0  0  0  0
    0.3366    2.0435   -0.0856 H   0  0  0  0  0  0
   -0.6100    1.6290   -1.5549 H   0  0  0  0  0  0
    1.1223    1.1673   -1.4426 H   0  0  0  0  0  0
   -1.8039    1.3995    1.2485 H   0  0  0  0  0  0
    1.1420   -1.8407    3.6559 H   0  0  0  0  0  0
    1.1583   -1.5325    1.2668 H   0  0  0  0  0  0
    0.6641   -1.6898    6.0018 H   0  0  0  0  0  0
   -0.9064   -1.5211    6.8572 H   0  0  0  0  0  0
    0.3518   -0.2510    7.0310 H   0  0  0  0  0  0
   -1.8295    0.5942    7.3612 H   0  0  0  0  0  0
   -3.3420    0.9427    6.4570 H   0  0  0  0  0  0
   -2.0861    2.2152    6.6308 H   0  0  0  0  0  0
   -4.7195    0.2104    1.9787 H   0  0  0  0  0  0
   -4.7740   -0.7578    0.4667 H   0  0  0  0  0  0
   -2.5487   -4.8100   -2.2235 H   0  0  0  0  0  0
   -2.7551    1.9942    3.8145 H   0  0  0  0  0  0
  1  2  1  0  0  0
  1 32  1  0  0  0
  1 33  1  0  0  0
  1 34  1  0  0  0
  2  7  2  0  0  0
  2  3  1  0  0  0
  3  4  2  0  0  0
  3 28  1  0  0  0
  4  5  1  0  0  0
  4 35  1  0  0  0
  5  6  2  0  0  0
  5  8  1  0  0  0
  6  7  1  0  0  0
  6 36  1  0  0  0
  7 37  1  0  0  0
  8  9  1  0  0  0
  8 55  1  0  0  0
  9 14  2  0  0  0
  9 10  1  0  0  0
 10 38  1  0  0  0
 10 11  1  0  0  0
 11 12  2  0  0  0
 11 39  1  0  0  0
 12 40  1  0  0  0
 12 13  1  0  0  0
 13 15  2  0  0  0
 13 14  1  0  0  0
 15 16  1  0  0  0
 15 17  1  0  0  0
 16 41  1  0  0  0
 16 42  1  0  0  0
 16 43  1  0  0  0
 17 25  1  0  0  0
 17 18  2  0  0  0
 18 19  1  0  0  0
 18 44  1  0  0  0
 19 23  1  0  0  0
 19 20  2  0  0  0
 20 21  1  0  0  0
 20 56  1  0  0  0
 21 22  1  0  0  0
 21 27  1  0  0  0
 22 23  2  0  0  0
 22 26  1  0  0  0
 23 24  1  0  0  0
 24 25  2  0  0  0
 24 45  1  0  0  0
 25 46  1  0  0  0
 26 47  1  0  0  0
 26 48  1  0  0  0
 26 49  1  0  0  0
 27 50  1  0  0  0
 27 51  1  0  0  0
 27 52  1  0  0  0
 28 29  2  0  0  0
 28 30  2  0  0  0
 28 31  1  0  0  0
 31 53  1  0  0  0
 31 54  1  0  0  0
M  CHG  2  15   1  20   1
M  END
> <s_m_source_file>
/Users/andrea/Development/mcce-charges/epik_inhibitors/output/Pazopanib/Pazopanib-input.mol2

> <i_m_source_file_index>
1

> <r_lp_tautomer_probability>
0.499942863283806

> <r_epik_Ionization_Penalty>
  4.2682

> <r_epik_Ionization_Penalty_Charging>
  3.0927

> <r_epik_Ionization_Penalty_Neutral>
  1.1755

> <r_epik_State_Penalty>
  6.9227

> <i_epik_Tot_Q>
2

> <s_epik_Chemistry_Notes>
This compound has an imine and may undergo hydrolysis.

$$$$
5-[[4-[(2,3-dimethylindazol-6-yl)-methyl-amino]pyrimidin-2-yl]amino]-2-methyl-benzenesulfonamide
                    3D
 Structure written by MMmdl.
 56 59  0  0  1  0            999 V2000
   -5.7603   -4.9945    2.9658 C   0  0  0  0  0  0
   -4.8761   -4.7061    1.7969 C   0  0  0  0  0  0
   -4.5403   -3.3984    1.4463 C   0  0  0  0  0  0
   -3.7122   -3.1613    0.3491 C   0  0  0  0  0  0
   -3.2200   -4.2319   -0.3975 C   0  0  0  0  0  0
   -3.5560   -5.5395   -0.0468 C   0  0  0  0  0  0
   -4.3840   -5.7766    1.0503 C   0  0  0  0  0  0
   -2.3835   -3.9928   -1.5060 N   0  0  0  0  0  0
   -1.4572   -2.9696   -1.8025 C   0  0  0  0  0  0
   -0.8196   -3.0596   -2.9852 N   0  3  0  0  0  0
    0.0569   -2.0652   -3.2367 C   0  0  0  0  0  0
    0.3027   -1.0219   -2.3675 C   0  0  0  0  0  0
   -0.4151   -1.0447   -1.1892 C   0  0  0  0  0  0
   -1.3067   -2.0068   -0.8730 N   0  0  0  0  0  0
   -0.1931    0.0118   -0.2692 N   0  0  0  0  0  0
   -0.3798   -0.3454    1.1426 C   0  0  0  0  0  0
    0.4077    1.2666   -0.5590 C   0  0  0  0  0  0
    1.5870    1.6175    0.1342 C   0  0  0  0  0  0
    2.0987    2.8771   -0.2282 C   0  0  0  0  0  0
    3.1862    3.5350    0.2111 N   0  3  0  0  0  0
    3.1877    4.6915   -0.4799 N   0  0  0  0  0  0
    2.1531    4.8334   -1.3580 C   0  0  0  0  0  0
    1.4303    3.6821   -1.2225 C   0  0  0  0  0  0
    0.2718    3.3661   -1.9209 C   0  0  0  0  0  0
   -0.2175    2.1015   -1.5382 C   0  0  0  0  0  0
    1.9811    6.0279   -2.2064 C   0  0  0  0  0  0
    4.2480    5.6440   -0.2407 C   0  0  0  0  0  0
   -5.1401   -2.0322    2.3609 S   0  0  0  0  0  0
   -6.5843   -1.9722    2.1954 O   0  0  0  0  0  0
   -4.5634   -2.0854    3.6957 O   0  0  0  0  0  0
   -4.4300   -0.7359    1.5053 N   0  0  0  0  0  0
   -6.0588   -4.0488    3.4418 H   0  0  0  0  0  0
   -5.2161   -5.6152    3.6928 H   0  0  0  0  0  0
   -6.6570   -5.5318    2.6235 H   0  0  0  0  0  0
   -3.4494   -2.1422    0.0745 H   0  0  0  0  0  0
   -3.1780   -6.3811   -0.6217 H   0  0  0  0  0  0
   -4.6398   -6.7992    1.3151 H   0  0  0  0  0  0
   -2.3859   -4.6895   -2.3572 H   0  0  0  0  0  0
    0.5726   -2.1325   -4.1888 H   0  0  0  0  0  0
    1.0141   -0.2418   -2.6085 H   0  0  0  0  0  0
   -0.1858    0.5354    1.7724 H   0  0  0  0  0  0
    0.3194   -1.1505    1.4127 H   0  0  0  0  0  0
   -1.4129   -0.6887    1.3004 H   0  0  0  0  0  0
    2.0524    0.9766    0.8724 H   0  0  0  0  0  0
   -0.2141    3.9853   -2.6618 H   0  0  0  0  0  0
   -1.1283    1.7449   -2.0210 H   0  0  0  0  0  0
    1.0802    5.9105   -2.8265 H   0  0  0  0  0  0
    2.8608    6.1458   -2.8563 H   0  0  0  0  0  0
    1.8741    6.9180   -1.5690 H   0  0  0  0  0  0
    4.1001    6.5259   -0.8814 H   0  0  0  0  0  0
    5.2175    5.1797   -0.4741 H   0  0  0  0  0  0
    4.2334    5.9514    0.8154 H   0  0  0  0  0  0
   -4.7221    0.2159    1.9730 H   0  0  0  0  0  0
   -4.7757   -0.7527    0.4612 H   0  0  0  0  0  0
   -1.0319   -3.9005   -3.6619 H   0  0  0  0  0  0
    3.8316    3.0808    0.9773 H   0  0  0  0  0  0
  1  2  1  0  0  0
  1 32  1  0  0  0
  1 33  1  0  0  0
  1 34  1  0  0  0
  2  7  2  0  0  0
  2  3  1  0  0  0
  3  4  2  0  0  0
  3 28  1  0  0  0
  4  5  1  0  0  0
  4 35  1  0  0  0
  5  6  2  0  0  0
  5  8  1  0  0  0
  6  7  1  0  0  0
  6 36  1  0  0  0
  7 37  1  0  0  0
  8  9  1  0  0  0
  8 38  1  0  0  0
  9 14  2  0  0  0
  9 10  1  0  0  0
 10 11  2  0  0  0
 10 55  1  0  0  0
 11 12  1  0  0  0
 11 39  1  0  0  0
 12 13  2  0  0  0
 12 40  1  0  0  0
 13 14  1  0  0  0
 13 15  1  0  0  0
 15 16  1  0  0  0
 15 17  1  0  0  0
 16 41  1  0  0  0
 16 42  1  0  0  0
 16 43  1  0  0  0
 17 25  1  0  0  0
 17 18  2  0  0  0
 18 19  1  0  0  0
 18 44  1  0  0  0
 19 23  1  0  0  0
 19 20  2  0  0  0
 20 21  1  0  0  0
 20 56  1  0  0  0
 21 22  1  0  0  0
 21 27  1  0  0  0
 22 23  2  0  0  0
 22 26  1  0  0  0
 23 24  1  0  0  0
 24 25  2  0  0  0
 24 45  1  0  0  0
 25 46  1  0  0  0
 26 47  1  0  0  0
 26 48  1  0  0  0
 26 49  1  0  0  0
 27 50  1  0  0  0
 27 51  1  0  0  0
 27 52  1  0  0  0
 28 29  2  0  0  0
 28 30  2  0  0  0
 28 31  1  0  0  0
 31 53  1  0  0  0
 31 54  1  0  0  0
M  CHG  2  10   1  20   1
M  END
> <s_m_source_file>
/Users/andrea/Development/mcce-charges/epik_inhibitors/output/Pazopanib/Pazopanib-input.mol2

> <i_m_source_file_index>
1

> <r_lp_tautomer_probability>
0.499942863283806

> <r_epik_Ionization_Penalty>
  6.6383

> <r_epik_Ionization_Penalty_Charging>
  6.6363

> <r_epik_Ionization_Penalty_Neutral>
  0.0021

> <r_epik_State_Penalty>
  7.0566

> <i_epik_Tot_Q>
2

$$$$
5-[[4-[(2,3-dimethylindazol-6-yl)-methyl-amino]pyrimidin-2-yl]amino]-2-methyl-benzenesulfonamide
                    3D
 Structure written by MMmdl.
 54 57  0  0  1  0            999 V2000
   -5.7509   -5.0014    2.9714 C   0  0  0  0  0  0
   -4.8684   -4.7117    1.8015 C   0  0  0  0  0  0
   -4.5345   -3.4035    1.4508 C   0  0  0  0  0  0
   -3.7080   -3.1653    0.3526 C   0  0  0  0  0  0
   -3.2156   -4.2351   -0.3949 C   0  0  0  0  0  0
   -3.5497   -5.5432   -0.0441 C   0  0  0  0  0  0
   -4.3761   -5.7815    1.0540 C   0  0  0  0  0  0
   -2.3807   -3.9948   -1.5043 N   0  0  0  0  0  0
   -1.4559   -2.9706   -1.8017 C   0  0  0  0  0  0
   -0.8185   -3.0604   -2.9845 N   0  0  0  0  0  0
    0.0579   -2.0660   -3.2361 C   0  0  0  0  0  0
    0.3053   -1.0238   -2.3659 C   0  0  0  0  0  0
   -0.4151   -1.0447   -1.1892 C   0  0  0  0  0  0
   -1.3053   -2.0078   -0.8721 N   0  0  0  0  0  0
   -0.1931    0.0118   -0.2692 N   0  3  0  0  0  0
   -0.3798   -0.3454    1.1426 C   0  0  0  0  0  0
    0.1828    1.3435   -0.5930 C   0  0  0  0  0  0
    1.3995    1.8381   -0.0738 C   0  0  0  0  0  0
    1.6762    3.1638   -0.4555 C   0  0  0  0  0  0
    2.7223    3.9554   -0.1597 N   0  0  0  0  0  0
    2.4617    5.1160   -0.7922 N   0  0  0  0  0  0
    1.2922    5.1333   -1.4947 C   0  0  0  0  0  0
    0.7588    3.8908   -1.3001 C   0  0  0  0  0  0
   -0.4429    3.4337   -1.8261 C   0  0  0  0  0  0
   -0.6938    2.1056   -1.4280 C   0  0  0  0  0  0
    0.8319    6.3111   -2.2544 C   0  0  0  0  0  0
    3.4106    6.1999   -0.6770 C   0  0  0  0  0  0
   -5.1346   -2.0382    2.3665 S   0  0  0  0  0  0
   -6.5791   -1.9798    2.2028 O   0  0  0  0  0  0
   -4.5562   -2.0912    3.7006 O   0  0  0  0  0  0
   -4.4270   -0.7409    1.5104 N   0  5  0  0  0  0
   -6.0498   -4.0562    3.4481 H   0  0  0  0  0  0
   -5.2051   -5.6217    3.6976 H   0  0  0  0  0  0
   -6.6474   -5.5395    2.6300 H   0  0  0  0  0  0
   -3.4466   -2.1458    0.0780 H   0  0  0  0  0  0
   -3.1715   -6.3842   -0.6197 H   0  0  0  0  0  0
   -4.6305   -6.8044    1.3188 H   0  0  0  0  0  0
   -1.0308   -3.9012   -3.6612 H   0  0  0  0  0  0
    0.5411   -2.1128   -4.1104 H   0  0  0  0  0  0
    0.9710   -0.3178   -2.6078 H   0  0  0  0  0  0
   -0.1858    0.5354    1.7724 H   0  0  0  0  0  0
    0.3194   -1.1505    1.4127 H   0  0  0  0  0  0
   -1.4129   -0.6887    1.3004 H   0  0  0  0  0  0
    1.9705    1.2548    0.5039 H   0  0  0  0  0  0
   -1.0978    3.9127   -2.4106 H   0  0  0  0  0  0
   -1.5265    1.6418   -1.7306 H   0  0  0  0  0  0
   -0.1318    6.0845   -2.7339 H   0  0  0  0  0  0
    1.5748    6.5633   -3.0254 H   0  0  0  0  0  0
    0.7096    7.1638   -1.5703 H   0  0  0  0  0  0
    3.0481    7.0669   -1.2488 H   0  0  0  0  0  0
    4.3842    5.8788   -1.0758 H   0  0  0  0  0  0
    3.5218    6.4790    0.3811 H   0  0  0  0  0  0
   -4.6074    0.2949    1.8337 H   0  0  0  0  0  0
   -2.5487   -4.8100   -2.2235 H   0  0  0  0  0  0
  1  2  1  0  0  0
  1 32  1  0  0  0
  1 33  1  0  0  0
  1 34  1  0  0  0
  2  7  2  0  0  0
  2  3  1  0  0  0
  3  4  2  0  0  0
  3 28  1  0  0  0
  4  5  1  0  0  0
  4 35  1  0  0  0
  5  6  2  0  0  0
  5  8  1  0  0  0
  6  7  1  0  0  0
  6 36  1  0  0  0
  7 37  1  0  0  0
  8  9  1  0  0  0
  8 54  1  0  0  0
  9 14  2  0  0  0
  9 10  1  0  0  0
 10 38  1  0  0  0
 10 11  1  0  0  0
 11 12  2  0  0  0
 11 39  1  0  0  0
 12 40  1  0  0  0
 12 13  1  0  0  0
 13 15  2  0  0  0
 13 14  1  0  0  0
 15 16  1  0  0  0
 15 17  1  0  0  0
 16 41  1  0  0  0
 16 42  1  0  0  0
 16 43  1  0  0  0
 17 25  1  0  0  0
 17 18  2  0  0  0
 18 19  1  0  0  0
 18 44  1  0  0  0
 19 23  1  0  0  0
 19 20  2  0  0  0
 20 21  1  0  0  0
 21 22  1  0  0  0
 21 27  1  0  0  0
 22 23  2  0  0  0
 22 26  1  0  0  0
 23 24  1  0  0  0
 24 25  2  0  0  0
 24 45  1  0  0  0
 25 46  1  0  0  0
 26 47  1  0  0  0
 26 48  1  0  0  0
 26 49  1  0  0  0
 27 50  1  0  0  0
 27 51  1  0  0  0
 27 52  1  0  0  0
 28 29  2  0  0  0
 28 30  2  0  0  0
 28 31  1  0  0  0
 31 53  1  0  0  0
M  CHG  2  15   1  31  -1
M  END
> <s_m_source_file>
/Users/andrea/Development/mcce-charges/epik_inhibitors/output/Pazopanib/Pazopanib-input.mol2

> <i_m_source_file_index>
1

> <r_epik_Ionization_Penalty>
  4.6880

> <r_epik_Ionization_Penalty_Charging>
  3.9496

> <r_epik_Ionization_Penalty_Neutral>
  0.7384

> <r_epik_State_Penalty>
  7.7029

> <i_epik_Tot_Q>
0

> <s_epik_Chemistry_Notes>
This compound has an imine and may undergo hydrolysis.

$$$$
5-[[4-[(2,3-dimethylindazol-6-yl)-methyl-amino]pyrimidin-2-yl]amino]-2-methyl-benzenesulfonamide
                    3D
 Structure written by MMmdl.
 54 57  0  0  1  0            999 V2000
   -5.7509   -5.0014    2.9714 C   0  0  0  0  0  0
   -4.8684   -4.7117    1.8015 C   0  0  0  0  0  0
   -4.5345   -3.4035    1.4508 C   0  0  0  0  0  0
   -3.7080   -3.1653    0.3526 C   0  0  0  0  0  0
   -3.2156   -4.2351   -0.3949 C   0  0  0  0  0  0
   -3.5497   -5.5432   -0.0441 C   0  0  0  0  0  0
   -4.3761   -5.7815    1.0540 C   0  0  0  0  0  0
   -2.3807   -3.9948   -1.5043 N   0  0  0  0  0  0
   -1.4559   -2.9706   -1.8017 C   0  0  0  0  0  0
   -0.8185   -3.0604   -2.9845 N   0  0  0  0  0  0
    0.0579   -2.0660   -3.2361 C   0  0  0  0  0  0
    0.3053   -1.0238   -2.3659 C   0  0  0  0  0  0
   -0.4151   -1.0447   -1.1892 C   0  0  0  0  0  0
   -1.3053   -2.0078   -0.8721 N   0  0  0  0  0  0
   -0.1931    0.0118   -0.2692 N   0  3  0  0  0  0
    0.1878    1.2933   -0.8762 C   0  0  0  0  0  0
   -0.3059   -0.0675    1.1452 C   0  0  0  0  0  0
   -1.2422    0.7721    1.7878 C   0  0  0  0  0  0
   -1.2737    0.6131    3.1855 C   0  0  0  0  0  0
   -2.0240    1.2296    4.1158 N   0  0  0  0  0  0
   -1.6339    0.6849    5.2846 N   0  0  0  0  0  0
   -0.6603   -0.2647    5.1754 C   0  0  0  0  0  0
   -0.4033   -0.3372    3.8356 C   0  0  0  0  0  0
    0.5262   -1.1757    3.2334 C   0  0  0  0  0  0
    0.5360   -0.9952    1.8361 C   0  0  0  0  0  0
   -0.1022   -0.9769    6.3405 C   0  0  0  0  0  0
   -2.2603    1.1362    6.5064 C   0  0  0  0  0  0
   -5.1346   -2.0382    2.3665 S   0  0  0  0  0  0
   -6.5791   -1.9798    2.2028 O   0  0  0  0  0  0
   -4.5562   -2.0912    3.7006 O   0  0  0  0  0  0
   -4.4270   -0.7409    1.5104 N   0  5  0  0  0  0
   -6.0498   -4.0562    3.4481 H   0  0  0  0  0  0
   -5.2051   -5.6217    3.6976 H   0  0  0  0  0  0
   -6.6474   -5.5395    2.6300 H   0  0  0  0  0  0
   -3.4466   -2.1458    0.0780 H   0  0  0  0  0  0
   -3.1715   -6.3842   -0.6197 H   0  0  0  0  0  0
   -4.6305   -6.8044    1.3188 H   0  0  0  0  0  0
   -1.0308   -3.9012   -3.6612 H   0  0  0  0  0  0
    0.5411   -2.1128   -4.1104 H   0  0  0  0  0  0
    0.9710   -0.3178   -2.6078 H   0  0  0  0  0  0
    0.3366    2.0435   -0.0856 H   0  0  0  0  0  0
   -0.6100    1.6290   -1.5549 H   0  0  0  0  0  0
    1.1223    1.1673   -1.4426 H   0  0  0  0  0  0
   -1.8039    1.3995    1.2485 H   0  0  0  0  0  0
    1.1420   -1.8407    3.6559 H   0  0  0  0  0  0
    1.1583   -1.5325    1.2668 H   0  0  0  0  0  0
    0.6641   -1.6898    6.0018 H   0  0  0  0  0  0
   -0.9064   -1.5211    6.8572 H   0  0  0  0  0  0
    0.3518   -0.2510    7.0310 H   0  0  0  0  0  0
   -1.8295    0.5942    7.3612 H   0  0  0  0  0  0
   -3.3420    0.9427    6.4570 H   0  0  0  0  0  0
   -2.0861    2.2152    6.6308 H   0  0  0  0  0  0
   -4.6074    0.2949    1.8337 H   0  0  0  0  0  0
   -2.5487   -4.8100   -2.2235 H   0  0  0  0  0  0
  1  2  1  0  0  0
  1 32  1  0  0  0
  1 33  1  0  0  0
  1 34  1  0  0  0
  2  7  2  0  0  0
  2  3  1  0  0  0
  3  4  2  0  0  0
  3 28  1  0  0  0
  4  5  1  0  0  0
  4 35  1  0  0  0
  5  6  2  0  0  0
  5  8  1  0  0  0
  6  7  1  0  0  0
  6 36  1  0  0  0
  7 37  1  0  0  0
  8  9  1  0  0  0
  8 54  1  0  0  0
  9 14  2  0  0  0
  9 10  1  0  0  0
 10 38  1  0  0  0
 10 11  1  0  0  0
 11 12  2  0  0  0
 11 39  1  0  0  0
 12 40  1  0  0  0
 12 13  1  0  0  0
 13 15  2  0  0  0
 13 14  1  0  0  0
 15 16  1  0  0  0
 15 17  1  0  0  0
 16 41  1  0  0  0
 16 42  1  0  0  0
 16 43  1  0  0  0
 17 25  1  0  0  0
 17 18  2  0  0  0
 18 19  1  0  0  0
 18 44  1  0  0  0
 19 23  1  0  0  0
 19 20  2  0  0  0
 20 21  1  0  0  0
 21 22  1  0  0  0
 21 27  1  0  0  0
 22 23  2  0  0  0
 22 26  1  0  0  0
 23 24  1  0  0  0
 24 25  2  0  0  0
 24 45  1  0  0  0
 25 46  1  0  0  0
 26 47  1  0  0  0
 26 48  1  0  0  0
 26 49  1  0  0  0
 27 50  1  0  0  0
 27 51  1  0  0  0
 27 52  1  0  0  0
 28 29  2  0  0  0
 28 30  2  0  0  0
 28 31  1  0  0  0
 31 53  1  0  0  0
M  CHG  2  15   1  31  -1
M  END
> <s_m_source_file>
/Users/andrea/Development/mcce-charges/epik_inhibitors/output/Pazopanib/Pazopanib-input.mol2

> <i_m_source_file_index>
1

> <r_epik_Ionization_Penalty>
  4.6880

> <r_epik_Ionization_Penalty_Charging>
  3.9496

> <r_epik_Ionization_Penalty_Neutral>
  0.7384

> <r_epik_State_Penalty>
  7.7029

> <i_epik_Tot_Q>
0

> <s_epik_Chemistry_Notes>
This compound has an imine and may undergo hydrolysis.

$$$$
5-[[4-[(2,3-dimethylindazol-6-yl)-methyl-amino]pyrimidin-2-yl]amino]-2-methyl-benzenesulfonamide
                    3D
 Structure written by MMmdl.
 54 57  0  0  1  0            999 V2000
   -5.7603   -4.9945    2.9658 C   0  0  0  0  0  0
   -4.8761   -4.7061    1.7969 C   0  0  0  0  0  0
   -4.5403   -3.3984    1.4463 C   0  0  0  0  0  0
   -3.7122   -3.1613    0.3491 C   0  0  0  0  0  0
   -3.2200   -4.2319   -0.3975 C   0  0  0  0  0  0
   -3.5560   -5.5395   -0.0468 C   0  0  0  0  0  0
   -4.3840   -5.7766    1.0503 C   0  0  0  0  0  0
   -2.3835   -3.9928   -1.5060 N   0  0  0  0  0  0
   -1.4572   -2.9696   -1.8025 C   0  0  0  0  0  0
   -0.8196   -3.0596   -2.9852 N   0  3  0  0  0  0
    0.0569   -2.0652   -3.2367 C   0  0  0  0  0  0
    0.3027   -1.0219   -2.3675 C   0  0  0  0  0  0
   -0.4151   -1.0447   -1.1892 C   0  0  0  0  0  0
   -1.3067   -2.0068   -0.8730 N   0  0  0  0  0  0
   -0.1931    0.0118   -0.2692 N   0  0  0  0  0  0
   -0.3798   -0.3454    1.1426 C   0  0  0  0  0  0
    0.4077    1.2666   -0.5590 C   0  0  0  0  0  0
    1.5870    1.6175    0.1342 C   0  0  0  0  0  0
    2.0987    2.8771   -0.2282 C   0  0  0  0  0  0
    3.1862    3.5350    0.2111 N   0  0  0  0  0  0
    3.1877    4.6915   -0.4799 N   0  0  0  0  0  0
    2.1531    4.8334   -1.3580 C   0  0  0  0  0  0
    1.4303    3.6821   -1.2225 C   0  0  0  0  0  0
    0.2718    3.3661   -1.9209 C   0  0  0  0  0  0
   -0.2175    2.1015   -1.5382 C   0  0  0  0  0  0
    1.9811    6.0279   -2.2064 C   0  0  0  0  0  0
    4.2480    5.6440   -0.2407 C   0  0  0  0  0  0
   -5.1401   -2.0322    2.3609 S   0  0  0  0  0  0
   -6.5843   -1.9722    2.1954 O   0  0  0  0  0  0
   -4.5634   -2.0854    3.6957 O   0  0  0  0  0  0
   -4.4300   -0.7359    1.5053 N   0  5  0  0  0  0
   -6.0588   -4.0488    3.4418 H   0  0  0  0  0  0
   -5.2161   -5.6152    3.6928 H   0  0  0  0  0  0
   -6.6570   -5.5318    2.6235 H   0  0  0  0  0  0
   -3.4494   -2.1422    0.0745 H   0  0  0  0  0  0
   -3.1780   -6.3811   -0.6217 H   0  0  0  0  0  0
   -4.6398   -6.7992    1.3151 H   0  0  0  0  0  0
   -2.3859   -4.6895   -2.3572 H   0  0  0  0  0  0
    0.5726   -2.1325   -4.1888 H   0  0  0  0  0  0
    1.0141   -0.2418   -2.6085 H   0  0  0  0  0  0
   -0.1858    0.5354    1.7724 H   0  0  0  0  0  0
    0.3194   -1.1505    1.4127 H   0  0  0  0  0  0
   -1.4129   -0.6887    1.3004 H   0  0  0  0  0  0
    2.0524    0.9766    0.8724 H   0  0  0  0  0  0
   -0.2141    3.9853   -2.6618 H   0  0  0  0  0  0
   -1.1283    1.7449   -2.0210 H   0  0  0  0  0  0
    1.0802    5.9105   -2.8265 H   0  0  0  0  0  0
    2.8608    6.1458   -2.8563 H   0  0  0  0  0  0
    1.8741    6.9180   -1.5690 H   0  0  0  0  0  0
    4.1001    6.5259   -0.8814 H   0  0  0  0  0  0
    5.2175    5.1797   -0.4741 H   0  0  0  0  0  0
    4.2334    5.9514    0.8154 H   0  0  0  0  0  0
   -4.6097    0.3002    1.8281 H   0  0  0  0  0  0
   -1.0319   -3.9005   -3.6619 H   0  0  0  0  0  0
  1  2  1  0  0  0
  1 32  1  0  0  0
  1 33  1  0  0  0
  1 34  1  0  0  0
  2  7  2  0  0  0
  2  3  1  0  0  0
  3  4  2  0  0  0
  3 28  1  0  0  0
  4  5  1  0  0  0
  4 35  1  0  0  0
  5  6  2  0  0  0
  5  8  1  0  0  0
  6  7  1  0  0  0
  6 36  1  0  0  0
  7 37  1  0  0  0
  8  9  1  0  0  0
  8 38  1  0  0  0
  9 14  2  0  0  0
  9 10  1  0  0  0
 10 11  2  0  0  0
 10 54  1  0  0  0
 11 12  1  0  0  0
 11 39  1  0  0  0
 12 13  2  0  0  0
 12 40  1  0  0  0
 13 14  1  0  0  0
 13 15  1  0  0  0
 15 16  1  0  0  0
 15 17  1  0  0  0
 16 41  1  0  0  0
 16 42  1  0  0  0
 16 43  1  0  0  0
 17 25  1  0  0  0
 17 18  2  0  0  0
 18 19  1  0  0  0
 18 44  1  0  0  0
 19 23  1  0  0  0
 19 20  2  0  0  0
 20 21  1  0  0  0
 21 22  1  0  0  0
 21 27  1  0  0  0
 22 23  2  0  0  0
 22 26  1  0  0  0
 23 24  1  0  0  0
 24 25  2  0  0  0
 24 45  1  0  0  0
 25 46  1  0  0  0
 26 47  1  0  0  0
 26 48  1  0  0  0
 26 49  1  0  0  0
 27 50  1  0  0  0
 27 51  1  0  0  0
 27 52  1  0  0  0
 28 29  2  0  0  0
 28 30  2  0  0  0
 28 31  1  0  0  0
 31 53  1  0  0  0
M  CHG  2  10   1  31  -1
M  END
> <s_m_source_file>
/Users/andrea/Development/mcce-charges/epik_inhibitors/output/Pazopanib/Pazopanib-input.mol2

> <i_m_source_file_index>
1

> <r_epik_Ionization_Penalty>
  7.1140

> <r_epik_Ionization_Penalty_Charging>
  7.1110

> <r_epik_Ionization_Penalty_Neutral>
  0.0030

> <r_epik_State_Penalty>
  7.7941

> <i_epik_Tot_Q>
0

$$$$
5-[[4-[(2,3-dimethylindazol-6-yl)-methyl-amino]pyrimidin-2-yl]amino]-2-methyl-benzenesulfonamide
                    3D
 Structure written by MMmdl.
 54 57  0  0  1  0            999 V2000
   -4.0998   -8.6170   -4.3475 C   0  0  0  0  0  0
   -3.6261   -7.4055   -3.6133 C   0  0  0  0  0  0
   -2.3323   -6.9130   -3.7843 C   0  0  0  0  0  0
   -1.9194   -5.7793   -3.0844 C   0  0  0  0  0  0
   -2.8003   -5.1381   -2.2133 C   0  0  0  0  0  0
   -4.0940   -5.6307   -2.0424 C   0  0  0  0  0  0
   -4.5069   -6.7643   -2.7423 C   0  0  0  0  0  0
   -2.3835   -3.9928   -1.5060 N   0  0  0  0  0  0
   -1.4572   -2.9696   -1.8025 C   0  0  0  0  0  0
   -0.8184   -3.0605   -2.9845 N   0  0  0  0  0  0
    0.0580   -2.0660   -3.2360 C   0  0  0  0  0  0
    0.3027   -1.0219   -2.3675 C   0  0  0  0  0  0
   -0.4162   -1.0439   -1.1899 C   0  0  0  0  0  0
   -1.3067   -2.0068   -0.8730 N   0  0  0  0  0  0
   -0.1938    0.0123   -0.2696 N   0  0  0  0  0  0
   -0.3801   -0.3453    1.1421 C   0  0  0  0  0  0
    0.4071    1.2671   -0.5592 C   0  0  0  0  0  0
    1.5866    1.6177    0.1337 C   0  0  0  0  0  0
    2.0984    2.8773   -0.2285 C   0  0  0  0  0  0
    3.1861    3.5349    0.2107 N   0  0  0  0  0  0
    3.1876    4.6916   -0.4799 N   0  0  0  0  0  0
    2.1527    4.8339   -1.3577 C   0  0  0  0  0  0
    1.4298    3.6827   -1.2223 C   0  0  0  0  0  0
    0.2711    3.3671   -1.9205 C   0  0  0  0  0  0
   -0.2183    2.1024   -1.5380 C   0  0  0  0  0  0
    1.9806    6.0287   -2.2057 C   0  0  0  0  0  0
    4.2481    5.6439   -0.2408 C   0  0  0  0  0  0
   -1.2016   -7.6928   -4.8689 S   0  0  0  0  0  0
   -0.8983   -9.0130   -4.3382 O   0  0  0  0  0  0
   -1.7002   -7.5533   -6.2287 O   0  0  0  0  0  0
    0.1686   -6.6912   -4.6792 N   0  0  0  0  0  0
   -3.2901   -8.9980   -4.9872 H   0  0  0  0  0  0
   -4.9662   -8.3522   -4.9714 H   0  0  0  0  0  0
   -4.3919   -9.3929   -3.6247 H   0  0  0  0  0  0
   -0.9108   -5.3941   -3.2167 H   0  0  0  0  0  0
   -4.7886   -5.1388   -1.3661 H   0  0  0  0  0  0
   -5.5170   -7.1401   -2.6019 H   0  0  0  0  0  0
    0.5434   -2.1144   -4.1090 H   0  0  0  0  0  0
    0.9655   -0.3138   -2.6110 H   0  0  0  0  0  0
   -0.1859    0.5353    1.7721 H   0  0  0  0  0  0
    0.3191   -1.1505    1.4117 H   0  0  0  0  0  0
   -1.4132   -0.6885    1.3001 H   0  0  0  0  0  0
    1.9768    0.9891    0.8065 H   0  0  0  0  0  0
   -0.2146    3.9032   -2.6109 H   0  0  0  0  0  0
   -1.0509    1.7407   -1.9575 H   0  0  0  0  0  0
    1.0795    5.9116   -2.8256 H   0  0  0  0  0  0
    2.8601    6.1467   -2.8558 H   0  0  0  0  0  0
    1.8740    6.9186   -1.5680 H   0  0  0  0  0  0
    4.1001    6.5260   -0.8811 H   0  0  0  0  0  0
    5.2174    5.1795   -0.4746 H   0  0  0  0  0  0
    4.2338    5.9510    0.8154 H   0  0  0  0  0  0
    0.9856   -7.0632   -5.3149 H   0  0  0  0  0  0
    0.4885   -6.7029   -3.6268 H   0  0  0  0  0  0
   -1.0298   -3.9020   -3.6606 H   0  0  0  0  0  0
  1  2  1  0  0  0
  1 32  1  0  0  0
  1 33  1  0  0  0
  1 34  1  0  0  0
  2  7  2  0  0  0
  2  3  1  0  0  0
  3  4  2  0  0  0
  3 28  1  0  0  0
  4  5  1  0  0  0
  4 35  1  0  0  0
  5  6  2  0  0  0
  5  8  1  0  0  0
  6  7  1  0  0  0
  6 36  1  0  0  0
  7 37  1  0  0  0
  8  9  2  0  0  0
  9 14  1  0  0  0
  9 10  1  0  0  0
 10 11  1  0  0  0
 10 54  1  0  0  0
 11 12  2  0  0  0
 11 38  1  0  0  0
 12 39  1  0  0  0
 12 13  1  0  0  0
 13 15  1  0  0  0
 13 14  2  0  0  0
 15 16  1  0  0  0
 15 17  1  0  0  0
 16 40  1  0  0  0
 16 41  1  0  0  0
 16 42  1  0  0  0
 17 25  1  0  0  0
 17 18  2  0  0  0
 18 19  1  0  0  0
 18 43  1  0  0  0
 19 23  1  0  0  0
 19 20  2  0  0  0
 20 21  1  0  0  0
 21 22  1  0  0  0
 21 27  1  0  0  0
 22 23  2  0  0  0
 22 26  1  0  0  0
 23 24  1  0  0  0
 24 25  2  0  0  0
 24 44  1  0  0  0
 25 45  1  0  0  0
 26 46  1  0  0  0
 26 47  1  0  0  0
 26 48  1  0  0  0
 27 49  1  0  0  0
 27 50  1  0  0  0
 27 51  1  0  0  0
 28 29  2  0  0  0
 28 30  2  0  0  0
 28 31  1  0  0  0
 31 52  1  0  0  0
 31 53  1  0  0  0
M  END
> <s_m_source_file>
/Users/andrea/Development/mcce-charges/epik_inhibitors/output/Pazopanib/Pazopanib-input.mol2

> <i_m_source_file_index>
1

> <r_lp_tautomer_probability>
5.3099943542632e-07

> <r_epik_Ionization_Penalty>
  7.3687

> <r_epik_Ionization_Penalty_Charging>
  7.3665

> <r_epik_Ionization_Penalty_Neutral>
  0.0022

> <r_epik_State_Penalty>
  7.9426

> <i_epik_Tot_Q>
0

$$$$
5-[[4-[(2,3-dimethylindazol-6-yl)-methyl-amino]pyrimidin-2-yl]amino]-2-methyl-benzenesulfonamide
                    3D
 Structure written by MMmdl.
 54 57  0  0  1  0            999 V2000
   -5.7509   -5.0014    2.9714 C   0  0  0  0  0  0
   -4.8684   -4.7117    1.8015 C   0  0  0  0  0  0
   -4.5345   -3.4035    1.4508 C   0  0  0  0  0  0
   -3.7080   -3.1653    0.3526 C   0  0  0  0  0  0
   -3.2156   -4.2351   -0.3949 C   0  0  0  0  0  0
   -3.5497   -5.5432   -0.0441 C   0  0  0  0  0  0
   -4.3761   -5.7815    1.0540 C   0  0  0  0  0  0
   -2.3807   -3.9948   -1.5043 N   0  0  0  0  0  0
   -1.4559   -2.9706   -1.8017 C   0  0  0  0  0  0
   -0.8185   -3.0604   -2.9845 N   0  0  0  0  0  0
    0.0579   -2.0660   -3.2361 C   0  0  0  0  0  0
    0.3053   -1.0238   -2.3659 C   0  0  0  0  0  0
   -0.4151   -1.0447   -1.1892 C   0  0  0  0  0  0
   -1.3053   -2.0078   -0.8721 N   0  0  0  0  0  0
   -0.1931    0.0118   -0.2692 N   0  0  0  0  0  0
   -0.3798   -0.3454    1.1426 C   0  0  0  0  0  0
    0.1828    1.3435   -0.5930 C   0  0  0  0  0  0
    1.3995    1.8381   -0.0738 C   0  0  0  0  0  0
    1.6762    3.1638   -0.4555 C   0  0  0  0  0  0
    2.7223    3.9554   -0.1597 N   0  0  0  0  0  0
    2.4617    5.1160   -0.7922 N   0  0  0  0  0  0
    1.2922    5.1333   -1.4947 C   0  0  0  0  0  0
    0.7588    3.8908   -1.3001 C   0  0  0  0  0  0
   -0.4429    3.4337   -1.8261 C   0  0  0  0  0  0
   -0.6938    2.1056   -1.4280 C   0  0  0  0  0  0
    0.8319    6.3111   -2.2544 C   0  0  0  0  0  0
    3.4106    6.1999   -0.6770 C   0  0  0  0  0  0
   -5.1346   -2.0382    2.3665 S   0  0  0  0  0  0
   -6.5791   -1.9798    2.2028 O   0  0  0  0  0  0
   -4.5562   -2.0912    3.7006 O   0  0  0  0  0  0
   -4.4270   -0.7409    1.5104 N   0  0  0  0  0  0
   -6.0498   -4.0562    3.4481 H   0  0  0  0  0  0
   -5.2051   -5.6217    3.6976 H   0  0  0  0  0  0
   -6.6474   -5.5395    2.6300 H   0  0  0  0  0  0
   -3.4466   -2.1458    0.0780 H   0  0  0  0  0  0
   -3.1715   -6.3842   -0.6197 H   0  0  0  0  0  0
   -4.6305   -6.8044    1.3188 H   0  0  0  0  0  0
   -1.0308   -3.9012   -3.6612 H   0  0  0  0  0  0
    0.5411   -2.1128   -4.1104 H   0  0  0  0  0  0
    0.9710   -0.3178   -2.6078 H   0  0  0  0  0  0
   -0.1858    0.5354    1.7724 H   0  0  0  0  0  0
    0.3194   -1.1505    1.4127 H   0  0  0  0  0  0
   -1.4129   -0.6887    1.3004 H   0  0  0  0  0  0
    1.9705    1.2548    0.5039 H   0  0  0  0  0  0
   -1.0978    3.9127   -2.4106 H   0  0  0  0  0  0
   -1.5265    1.6418   -1.7306 H   0  0  0  0  0  0
   -0.1318    6.0845   -2.7339 H   0  0  0  0  0  0
    1.5748    6.5633   -3.0254 H   0  0  0  0  0  0
    0.7096    7.1638   -1.5703 H   0  0  0  0  0  0
    3.0481    7.0669   -1.2488 H   0  0  0  0  0  0
    4.3842    5.8788   -1.0758 H   0  0  0  0  0  0
    3.5218    6.4790    0.3811 H   0  0  0  0  0  0
   -4.7195    0.2104    1.9787 H   0  0  0  0  0  0
   -4.7740   -0.7578    0.4667 H   0  0  0  0  0  0
  1  2  1  0  0  0
  1 32  1  0  0  0
  1 33  1  0  0  0
  1 34  1  0  0  0
  2  7  2  0  0  0
  2  3  1  0  0  0
  3  4  2  0  0  0
  3 28  1  0  0  0
  4  5  1  0  0  0
  4 35  1  0  0  0
  5  6  2  0  0  0
  5  8  1  0  0  0
  6  7  1  0  0  0
  6 36  1  0  0  0
  7 37  1  0  0  0
  8  9  2  0  0  0
  9 14  1  0  0  0
  9 10  1  0  0  0
 10 38  1  0  0  0
 10 11  1  0  0  0
 11 12  2  0  0  0
 11 39  1  0  0  0
 12 40  1  0  0  0
 12 13  1  0  0  0
 13 15  1  0  0  0
 13 14  2  0  0  0
 15 16  1  0  0  0
 15 17  1  0  0  0
 16 41  1  0  0  0
 16 42  1  0  0  0
 16 43  1  0  0  0
 17 25  1  0  0  0
 17 18  2  0  0  0
 18 19  1  0  0  0
 18 44  1  0  0  0
 19 23  1  0  0  0
 19 20  2  0  0  0
 20 21  1  0  0  0
 21 22  1  0  0  0
 21 27  1  0  0  0
 22 23  2  0  0  0
 22 26  1  0  0  0
 23 24  1  0  0  0
 24 25  2  0  0  0
 24 45  1  0  0  0
 25 46  1  0  0  0
 26 47  1  0  0  0
 26 48  1  0  0  0
 26 49  1  0  0  0
 27 50  1  0  0  0
 27 51  1  0  0  0
 27 52  1  0  0  0
 28 29  2  0  0  0
 28 30  2  0  0  0
 28 31  1  0  0  0
 31 53  1  0  0  0
 31 54  1  0  0  0
M  END
> <s_m_source_file>
/Users/andrea/Development/mcce-charges/epik_inhibitors/output/Pazopanib/Pazopanib-input.mol2

> <i_m_source_file_index>
1

> <r_lp_tautomer_probability>
5.3099943542632e-07

> <r_epik_Ionization_Penalty>
  7.3687

> <r_epik_Ionization_Penalty_Charging>
  7.3665

> <r_epik_Ionization_Penalty_Neutral>
  0.0022

> <r_epik_State_Penalty>
  7.9508

> <i_epik_Tot_Q>
0

$$$$
5-[[4-[(2,3-dimethylindazol-6-yl)-methyl-amino]pyrimidin-2-yl]amino]-2-methyl-benzenesulfonamide
                    3D
 Structure written by MMmdl.
 55 58  0  0  1  0            999 V2000
   -5.7603   -4.9945    2.9658 C   0  0  0  0  0  0
   -4.8761   -4.7061    1.7969 C   0  0  0  0  0  0
   -4.5403   -3.3984    1.4463 C   0  0  0  0  0  0
   -3.7122   -3.1613    0.3491 C   0  0  0  0  0  0
   -3.2200   -4.2319   -0.3975 C   0  0  0  0  0  0
   -3.5560   -5.5395   -0.0468 C   0  0  0  0  0  0
   -4.3840   -5.7766    1.0503 C   0  0  0  0  0  0
   -2.3835   -3.9928   -1.5060 N   0  0  0  0  0  0
   -1.4572   -2.9696   -1.8025 C   0  0  0  0  0  0
   -0.8196   -3.0596   -2.9852 N   0  0  0  0  0  0
    0.0569   -2.0652   -3.2367 C   0  0  0  0  0  0
    0.3027   -1.0219   -2.3675 C   0  0  0  0  0  0
   -0.4151   -1.0447   -1.1892 C   0  0  0  0  0  0
   -1.3067   -2.0068   -0.8730 N   0  3  0  0  0  0
   -0.1931    0.0118   -0.2692 N   0  0  0  0  0  0
   -0.3798   -0.3454    1.1426 C   0  0  0  0  0  0
    0.4077    1.2666   -0.5590 C   0  0  0  0  0  0
    1.5870    1.6175    0.1342 C   0  0  0  0  0  0
    2.0987    2.8771   -0.2282 C   0  0  0  0  0  0
    3.1862    3.5350    0.2111 N   0  0  0  0  0  0
    3.1877    4.6915   -0.4799 N   0  0  0  0  0  0
    2.1531    4.8334   -1.3580 C   0  0  0  0  0  0
    1.4303    3.6821   -1.2225 C   0  0  0  0  0  0
    0.2718    3.3661   -1.9209 C   0  0  0  0  0  0
   -0.2175    2.1015   -1.5382 C   0  0  0  0  0  0
    1.9811    6.0279   -2.2064 C   0  0  0  0  0  0
    4.2480    5.6440   -0.2407 C   0  0  0  0  0  0
   -5.1401   -2.0322    2.3609 S   0  0  0  0  0  0
   -6.5843   -1.9722    2.1954 O   0  0  0  0  0  0
   -4.5634   -2.0854    3.6957 O   0  0  0  0  0  0
   -4.4300   -0.7359    1.5053 N   0  0  0  0  0  0
   -6.0588   -4.0488    3.4418 H   0  0  0  0  0  0
   -5.2161   -5.6152    3.6928 H   0  0  0  0  0  0
   -6.6570   -5.5318    2.6235 H   0  0  0  0  0  0
   -3.4494   -2.1422    0.0745 H   0  0  0  0  0  0
   -3.1780   -6.3811   -0.6217 H   0  0  0  0  0  0
   -4.6398   -6.7992    1.3151 H   0  0  0  0  0  0
   -2.3859   -4.6895   -2.3572 H   0  0  0  0  0  0
    0.5726   -2.1325   -4.1888 H   0  0  0  0  0  0
    1.0141   -0.2418   -2.6085 H   0  0  0  0  0  0
   -0.1858    0.5354    1.7724 H   0  0  0  0  0  0
    0.3194   -1.1505    1.4127 H   0  0  0  0  0  0
   -1.4129   -0.6887    1.3004 H   0  0  0  0  0  0
    2.0524    0.9766    0.8724 H   0  0  0  0  0  0
   -0.2141    3.9853   -2.6618 H   0  0  0  0  0  0
   -1.1283    1.7449   -2.0210 H   0  0  0  0  0  0
    1.0802    5.9105   -2.8265 H   0  0  0  0  0  0
    2.8608    6.1458   -2.8563 H   0  0  0  0  0  0
    1.8741    6.9180   -1.5690 H   0  0  0  0  0  0
    4.1001    6.5259   -0.8814 H   0  0  0  0  0  0
    5.2175    5.1797   -0.4741 H   0  0  0  0  0  0
    4.2334    5.9514    0.8154 H   0  0  0  0  0  0
   -4.7221    0.2159    1.9730 H   0  0  0  0  0  0
   -4.7757   -0.7527    0.4612 H   0  0  0  0  0  0
   -1.8900   -2.0459    0.0588 H   0  0  0  0  0  0
  1  2  1  0  0  0
  1 32  1  0  0  0
  1 33  1  0  0  0
  1 34  1  0  0  0
  2  7  2  0  0  0
  2  3  1  0  0  0
  3  4  2  0  0  0
  3 28  1  0  0  0
  4  5  1  0  0  0
  4 35  1  0  0  0
  5  6  2  0  0  0
  5  8  1  0  0  0
  6  7  1  0  0  0
  6 36  1  0  0  0
  7 37  1  0  0  0
  8  9  1  0  0  0
  8 38  1  0  0  0
  9 14  2  0  0  0
  9 10  1  0  0  0
 10 11  2  0  0  0
 11 12  1  0  0  0
 11 39  1  0  0  0
 12 13  2  0  0  0
 12 40  1  0  0  0
 13 14  1  0  0  0
 13 15  1  0  0  0
 14 55  1  0  0  0
 15 16  1  0  0  0
 15 17  1  0  0  0
 16 41  1  0  0  0
 16 42  1  0  0  0
 16 43  1  0  0  0
 17 25  1  0  0  0
 17 18  2  0  0  0
 18 19  1  0  0  0
 18 44  1  0  0  0
 19 23  1  0  0  0
 19 20  2  0  0  0
 20 21  1  0  0  0
 21 22  1  0  0  0
 21 27  1  0  0  0
 22 23  2  0  0  0
 22 26  1  0  0  0
 23 24  1  0  0  0
 24 25  2  0  0  0
 24 45  1  0  0  0
 25 46  1  0  0  0
 26 47  1  0  0  0
 26 48  1  0  0  0
 26 49  1  0  0  0
 27 50  1  0  0  0
 27 51  1  0  0  0
 27 52  1  0  0  0
 28 29  2  0  0  0
 28 30  2  0  0  0
 28 31  1  0  0  0
 31 53  1  0  0  0
 31 54  1  0  0  0
M  CHG  1  14   1
M  END
> <s_m_source_file>
/Users/andrea/Development/mcce-charges/epik_inhibitors/output/Pazopanib/Pazopanib-input.mol2

> <i_m_source_file_index>
1

> <r_lp_tautomer_probability>
0.000114259796219594

> <r_epik_Ionization_Penalty>
  2.4572

> <r_epik_Ionization_Penalty_Charging>
  2.4535

> <r_epik_Ionization_Penalty_Neutral>
  0.0038

> <r_epik_State_Penalty>
  8.1010

> <i_epik_Tot_Q>
1

$$$$
5-[[4-[(2,3-dimethylindazol-6-yl)-methyl-amino]pyrimidin-2-yl]amino]-2-methyl-benzenesulfonamide
                    3D
 Structure written by MMmdl.
 54 57  0  0  1  0            999 V2000
   -5.7603   -4.9945    2.9658 C   0  0  0  0  0  0
   -4.8761   -4.7061    1.7969 C   0  0  0  0  0  0
   -4.5403   -3.3984    1.4463 C   0  0  0  0  0  0
   -3.7122   -3.1613    0.3491 C   0  0  0  0  0  0
   -3.2200   -4.2319   -0.3975 C   0  0  0  0  0  0
   -3.5560   -5.5395   -0.0468 C   0  0  0  0  0  0
   -4.3840   -5.7766    1.0503 C   0  0  0  0  0  0
   -2.3835   -3.9928   -1.5060 N   0  0  0  0  0  0
   -1.4572   -2.9696   -1.8025 C   0  0  0  0  0  0
   -0.8196   -3.0596   -2.9852 N   0  0  0  0  0  0
    0.0569   -2.0652   -3.2367 C   0  0  0  0  0  0
    0.3027   -1.0219   -2.3675 C   0  0  0  0  0  0
   -0.4151   -1.0447   -1.1892 C   0  0  0  0  0  0
   -1.3067   -2.0068   -0.8730 N   0  0  0  0  0  0
   -0.1931    0.0118   -0.2692 N   0  0  0  0  0  0
   -0.3798   -0.3454    1.1426 C   0  0  0  0  0  0
    0.4077    1.2666   -0.5590 C   0  0  0  0  0  0
    1.5870    1.6175    0.1342 C   0  0  0  0  0  0
    2.0987    2.8771   -0.2282 C   0  0  0  0  0  0
    3.1862    3.5350    0.2111 N   0  3  0  0  0  0
    3.1877    4.6915   -0.4799 N   0  0  0  0  0  0
    2.1531    4.8334   -1.3580 C   0  0  0  0  0  0
    1.4303    3.6821   -1.2225 C   0  0  0  0  0  0
    0.2718    3.3661   -1.9209 C   0  0  0  0  0  0
   -0.2175    2.1015   -1.5382 C   0  0  0  0  0  0
    1.9811    6.0279   -2.2064 C   0  0  0  0  0  0
    4.2480    5.6440   -0.2407 C   0  0  0  0  0  0
   -5.1401   -2.0322    2.3609 S   0  0  0  0  0  0
   -6.5843   -1.9722    2.1954 O   0  0  0  0  0  0
   -4.5634   -2.0854    3.6957 O   0  0  0  0  0  0
   -4.4300   -0.7359    1.5053 N   0  5  0  0  0  0
   -6.0588   -4.0488    3.4418 H   0  0  0  0  0  0
   -5.2161   -5.6152    3.6928 H   0  0  0  0  0  0
   -6.6570   -5.5318    2.6235 H   0  0  0  0  0  0
   -3.4494   -2.1422    0.0745 H   0  0  0  0  0  0
   -3.1780   -6.3811   -0.6217 H   0  0  0  0  0  0
   -4.6398   -6.7992    1.3151 H   0  0  0  0  0  0
   -2.3859   -4.6895   -2.3572 H   0  0  0  0  0  0
    0.5726   -2.1325   -4.1888 H   0  0  0  0  0  0
    1.0141   -0.2418   -2.6085 H   0  0  0  0  0  0
   -0.1858    0.5354    1.7724 H   0  0  0  0  0  0
    0.3194   -1.1505    1.4127 H   0  0  0  0  0  0
   -1.4129   -0.6887    1.3004 H   0  0  0  0  0  0
    2.0524    0.9766    0.8724 H   0  0  0  0  0  0
   -0.2141    3.9853   -2.6618 H   0  0  0  0  0  0
   -1.1283    1.7449   -2.0210 H   0  0  0  0  0  0
    1.0802    5.9105   -2.8265 H   0  0  0  0  0  0
    2.8608    6.1458   -2.8563 H   0  0  0  0  0  0
    1.8741    6.9180   -1.5690 H   0  0  0  0  0  0
    4.1001    6.5259   -0.8814 H   0  0  0  0  0  0
    5.2175    5.1797   -0.4741 H   0  0  0  0  0  0
    4.2334    5.9514    0.8154 H   0  0  0  0  0  0
   -4.6097    0.3002    1.8281 H   0  0  0  0  0  0
    3.8316    3.0808    0.9773 H   0  0  0  0  0  0
  1  2  1  0  0  0
  1 32  1  0  0  0
  1 33  1  0  0  0
  1 34  1  0  0  0
  2  7  2  0  0  0
  2  3  1  0  0  0
  3  4  2  0  0  0
  3 28  1  0  0  0
  4  5  1  0  0  0
  4 35  1  0  0  0
  5  6  2  0  0  0
  5  8  1  0  0  0
  6  7  1  0  0  0
  6 36  1  0  0  0
  7 37  1  0  0  0
  8  9  1  0  0  0
  8 38  1  0  0  0
  9 14  2  0  0  0
  9 10  1  0  0  0
 10 11  2  0  0  0
 11 12  1  0  0  0
 11 39  1  0  0  0
 12 13  2  0  0  0
 12 40  1  0  0  0
 13 14  1  0  0  0
 13 15  1  0  0  0
 15 16  1  0  0  0
 15 17  1  0  0  0
 16 41  1  0  0  0
 16 42  1  0  0  0
 16 43  1  0  0  0
 17 25  1  0  0  0
 17 18  2  0  0  0
 18 19  1  0  0  0
 18 44  1  0  0  0
 19 23  1  0  0  0
 19 20  2  0  0  0
 20 21  1  0  0  0
 20 54  1  0  0  0
 21 22  1  0  0  0
 21 27  1  0  0  0
 22 23  2  0  0  0
 22 26  1  0  0  0
 23 24  1  0  0  0
 24 25  2  0  0  0
 24 45  1  0  0  0
 25 46  1  0  0  0
 26 47  1  0  0  0
 26 48  1  0  0  0
 26 49  1  0  0  0
 27 50  1  0  0  0
 27 51  1  0  0  0
 27 52  1  0  0  0
 28 29  2  0  0  0
 28 30  2  0  0  0
 28 31  1  0  0  0
 31 53  1  0  0  0
M  CHG  2  20   1  31  -1
M  END
> <s_m_source_file>
/Users/andrea/Development/mcce-charges/epik_inhibitors/output/Pazopanib/Pazopanib-input.mol2

> <i_m_source_file_index>
1

> <r_epik_Ionization_Penalty>
  7.4369

> <r_epik_Ionization_Penalty_Charging>
  7.4245

> <r_epik_Ionization_Penalty_Neutral>
  0.0124

> <r_epik_State_Penalty>
  8.7871

> <i_epik_Tot_Q>
0

$$$$
5-[[4-[(2,3-dimethylindazol-6-yl)-methyl-amino]pyrimidin-2-yl]amino]-2-methyl-benzenesulfonamide
                    3D
 Structure written by MMmdl.
 54 57  0  0  1  0            999 V2000
   -5.7603   -4.9945    2.9658 C   0  0  0  0  0  0
   -4.8761   -4.7061    1.7969 C   0  0  0  0  0  0
   -4.5403   -3.3984    1.4463 C   0  0  0  0  0  0
   -3.7122   -3.1613    0.3491 C   0  0  0  0  0  0
   -3.2200   -4.2319   -0.3975 C   0  0  0  0  0  0
   -3.5560   -5.5395   -0.0468 C   0  0  0  0  0  0
   -4.3840   -5.7766    1.0503 C   0  0  0  0  0  0
   -2.3835   -3.9928   -1.5060 N   0  0  0  0  0  0
   -1.4572   -2.9696   -1.8025 C   0  0  0  0  0  0
   -0.8196   -3.0596   -2.9852 N   0  0  0  0  0  0
    0.0569   -2.0652   -3.2367 C   0  0  0  0  0  0
    0.3027   -1.0219   -2.3675 C   0  0  0  0  0  0
   -0.4151   -1.0447   -1.1892 C   0  0  0  0  0  0
   -1.3067   -2.0068   -0.8730 N   0  3  0  0  0  0
   -0.1931    0.0118   -0.2692 N   0  0  0  0  0  0
   -0.3798   -0.3454    1.1426 C   0  0  0  0  0  0
    0.4077    1.2666   -0.5590 C   0  0  0  0  0  0
    1.5870    1.6175    0.1342 C   0  0  0  0  0  0
    2.0987    2.8771   -0.2282 C   0  0  0  0  0  0
    3.1862    3.5350    0.2111 N   0  0  0  0  0  0
    3.1877    4.6915   -0.4799 N   0  0  0  0  0  0
    2.1531    4.8334   -1.3580 C   0  0  0  0  0  0
    1.4303    3.6821   -1.2225 C   0  0  0  0  0  0
    0.2718    3.3661   -1.9209 C   0  0  0  0  0  0
   -0.2175    2.1015   -1.5382 C   0  0  0  0  0  0
    1.9811    6.0279   -2.2064 C   0  0  0  0  0  0
    4.2480    5.6440   -0.2407 C   0  0  0  0  0  0
   -5.1401   -2.0322    2.3609 S   0  0  0  0  0  0
   -6.5843   -1.9722    2.1954 O   0  0  0  0  0  0
   -4.5634   -2.0854    3.6957 O   0  0  0  0  0  0
   -4.4300   -0.7359    1.5053 N   0  5  0  0  0  0
   -6.0588   -4.0488    3.4418 H   0  0  0  0  0  0
   -5.2161   -5.6152    3.6928 H   0  0  0  0  0  0
   -6.6570   -5.5318    2.6235 H   0  0  0  0  0  0
   -3.4494   -2.1422    0.0745 H   0  0  0  0  0  0
   -3.1780   -6.3811   -0.6217 H   0  0  0  0  0  0
   -4.6398   -6.7992    1.3151 H   0  0  0  0  0  0
   -2.3859   -4.6895   -2.3572 H   0  0  0  0  0  0
    0.5726   -2.1325   -4.1888 H   0  0  0  0  0  0
    1.0141   -0.2418   -2.6085 H   0  0  0  0  0  0
   -0.1858    0.5354    1.7724 H   0  0  0  0  0  0
    0.3194   -1.1505    1.4127 H   0  0  0  0  0  0
   -1.4129   -0.6887    1.3004 H   0  0  0  0  0  0
    2.0524    0.9766    0.8724 H   0  0  0  0  0  0
   -0.2141    3.9853   -2.6618 H   0  0  0  0  0  0
   -1.1283    1.7449   -2.0210 H   0  0  0  0  0  0
    1.0802    5.9105   -2.8265 H   0  0  0  0  0  0
    2.8608    6.1458   -2.8563 H   0  0  0  0  0  0
    1.8741    6.9180   -1.5690 H   0  0  0  0  0  0
    4.1001    6.5259   -0.8814 H   0  0  0  0  0  0
    5.2175    5.1797   -0.4741 H   0  0  0  0  0  0
    4.2334    5.9514    0.8154 H   0  0  0  0  0  0
   -4.6097    0.3002    1.8281 H   0  0  0  0  0  0
   -1.8900   -2.0459    0.0588 H   0  0  0  0  0  0
  1  2  1  0  0  0
  1 32  1  0  0  0
  1 33  1  0  0  0
  1 34  1  0  0  0
  2  7  2  0  0  0
  2  3  1  0  0  0
  3  4  2  0  0  0
  3 28  1  0  0  0
  4  5  1  0  0  0
  4 35  1  0  0  0
  5  6  2  0  0  0
  5  8  1  0  0  0
  6  7  1  0  0  0
  6 36  1  0  0  0
  7 37  1  0  0  0
  8  9  1  0  0  0
  8 38  1  0  0  0
  9 14  2  0  0  0
  9 10  1  0  0  0
 10 11  2  0  0  0
 11 12  1  0  0  0
 11 39  1  0  0  0
 12 13  2  0  0  0
 12 40  1  0  0  0
 13 14  1  0  0  0
 13 15  1  0  0  0
 14 54  1  0  0  0
 15 16  1  0  0  0
 15 17  1  0  0  0
 16 41  1  0  0  0
 16 42  1  0  0  0
 16 43  1  0  0  0
 17 25  1  0  0  0
 17 18  2  0  0  0
 18 19  1  0  0  0
 18 44  1  0  0  0
 19 23  1  0  0  0
 19 20  2  0  0  0
 20 21  1  0  0  0
 21 22  1  0  0  0
 21 27  1  0  0  0
 22 23  2  0  0  0
 22 26  1  0  0  0
 23 24  1  0  0  0
 24 25  2  0  0  0
 24 45  1  0  0  0
 25 46  1  0  0  0
 26 47  1  0  0  0
 26 48  1  0  0  0
 26 49  1  0  0  0
 27 50  1  0  0  0
 27 51  1  0  0  0
 27 52  1  0  0  0
 28 29  2  0  0  0
 28 30  2  0  0  0
 28 31  1  0  0  0
 31 53  1  0  0  0
M  CHG  2  14   1  31  -1
M  END
> <s_m_source_file>
/Users/andrea/Development/mcce-charges/epik_inhibitors/output/Pazopanib/Pazopanib-input.mol2

> <i_m_source_file_index>
1

> <r_epik_Ionization_Penalty>
  6.4061

> <r_epik_Ionization_Penalty_Charging>
  6.4031

> <r_epik_Ionization_Penalty_Neutral>
  0.0030

> <r_epik_State_Penalty>
 10.1092

> <i_epik_Tot_Q>
0

$$$$
5-[[4-[(2,3-dimethylindazol-6-yl)-methyl-amino]pyrimidin-2-yl]amino]-2-methyl-benzenesulfonamide
                    3D
 Structure written by MMmdl.
 55 58  0  0  1  0            999 V2000
   -5.7509   -5.0014    2.9714 C   0  0  0  0  0  0
   -4.8684   -4.7117    1.8015 C   0  0  0  0  0  0
   -4.5345   -3.4035    1.4508 C   0  0  0  0  0  0
   -3.7080   -3.1653    0.3526 C   0  0  0  0  0  0
   -3.2156   -4.2351   -0.3949 C   0  0  0  0  0  0
   -3.5497   -5.5432   -0.0441 C   0  0  0  0  0  0
   -4.3761   -5.7815    1.0540 C   0  0  0  0  0  0
   -2.3807   -3.9948   -1.5043 N   0  0  0  0  0  0
   -1.4559   -2.9706   -1.8017 C   0  0  0  0  0  0
   -0.8185   -3.0604   -2.9845 N   0  0  0  0  0  0
    0.0579   -2.0660   -3.2361 C   0  0  0  0  0  0
    0.3053   -1.0238   -2.3659 C   0  0  0  0  0  0
   -0.4151   -1.0447   -1.1892 C   0  0  0  0  0  0
   -1.3053   -2.0078   -0.8721 N   0  0  0  0  0  0
   -0.1931    0.0118   -0.2692 N   0  3  0  0  0  0
   -0.3798   -0.3454    1.1426 C   0  0  0  0  0  0
    0.1828    1.3435   -0.5930 C   0  0  0  0  0  0
    1.3995    1.8381   -0.0738 C   0  0  0  0  0  0
    1.6762    3.1638   -0.4555 C   0  0  0  0  0  0
    2.7223    3.9554   -0.1597 N   0  3  0  0  0  0
    2.4617    5.1160   -0.7922 N   0  0  0  0  0  0
    1.2922    5.1333   -1.4947 C   0  0  0  0  0  0
    0.7588    3.8908   -1.3001 C   0  0  0  0  0  0
   -0.4429    3.4337   -1.8261 C   0  0  0  0  0  0
   -0.6938    2.1056   -1.4280 C   0  0  0  0  0  0
    0.8319    6.3111   -2.2544 C   0  0  0  0  0  0
    3.4106    6.1999   -0.6770 C   0  0  0  0  0  0
   -5.1346   -2.0382    2.3665 S   0  0  0  0  0  0
   -6.5791   -1.9798    2.2028 O   0  0  0  0  0  0
   -4.5562   -2.0912    3.7006 O   0  0  0  0  0  0
   -4.4270   -0.7409    1.5104 N   0  5  0  0  0  0
   -6.0498   -4.0562    3.4481 H   0  0  0  0  0  0
   -5.2051   -5.6217    3.6976 H   0  0  0  0  0  0
   -6.6474   -5.5395    2.6300 H   0  0  0  0  0  0
   -3.4466   -2.1458    0.0780 H   0  0  0  0  0  0
   -3.1715   -6.3842   -0.6197 H   0  0  0  0  0  0
   -4.6305   -6.8044    1.3188 H   0  0  0  0  0  0
   -1.0308   -3.9012   -3.6612 H   0  0  0  0  0  0
    0.5411   -2.1128   -4.1104 H   0  0  0  0  0  0
    0.9710   -0.3178   -2.6078 H   0  0  0  0  0  0
   -0.1858    0.5354    1.7724 H   0  0  0  0  0  0
    0.3194   -1.1505    1.4127 H   0  0  0  0  0  0
   -1.4129   -0.6887    1.3004 H   0  0  0  0  0  0
    1.9705    1.2548    0.5039 H   0  0  0  0  0  0
   -1.0978    3.9127   -2.4106 H   0  0  0  0  0  0
   -1.5265    1.6418   -1.7306 H   0  0  0  0  0  0
   -0.1318    6.0845   -2.7339 H   0  0  0  0  0  0
    1.5748    6.5633   -3.0254 H   0  0  0  0  0  0
    0.7096    7.1638   -1.5703 H   0  0  0  0  0  0
    3.0481    7.0669   -1.2488 H   0  0  0  0  0  0
    4.3842    5.8788   -1.0758 H   0  0  0  0  0  0
    3.5218    6.4790    0.3811 H   0  0  0  0  0  0
   -4.6074    0.2949    1.8337 H   0  0  0  0  0  0
   -2.5487   -4.8100   -2.2235 H   0  0  0  0  0  0
    3.5348    3.5776    0.4785 H   0  0  0  0  0  0
  1  2  1  0  0  0
  1 32  1  0  0  0
  1 33  1  0  0  0
  1 34  1  0  0  0
  2  7  2  0  0  0
  2  3  1  0  0  0
  3  4  2  0  0  0
  3 28  1  0  0  0
  4  5  1  0  0  0
  4 35  1  0  0  0
  5  6  2  0  0  0
  5  8  1  0  0  0
  6  7  1  0  0  0
  6 36  1  0  0  0
  7 37  1  0  0  0
  8  9  1  0  0  0
  8 54  1  0  0  0
  9 14  2  0  0  0
  9 10  1  0  0  0
 10 38  1  0  0  0
 10 11  1  0  0  0
 11 12  2  0  0  0
 11 39  1  0  0  0
 12 40  1  0  0  0
 12 13  1  0  0  0
 13 15  2  0  0  0
 13 14  1  0  0  0
 15 16  1  0  0  0
 15 17  1  0  0  0
 16 41  1  0  0  0
 16 42  1  0  0  0
 16 43  1  0  0  0
 17 25  1  0  0  0
 17 18  2  0  0  0
 18 19  1  0  0  0
 18 44  1  0  0  0
 19 23  1  0  0  0
 19 20  2  0  0  0
 20 21  1  0  0  0
 20 55  1  0  0  0
 21 22  1  0  0  0
 21 27  1  0  0  0
 22 23  2  0  0  0
 22 26  1  0  0  0
 23 24  1  0  0  0
 24 25  2  0  0  0
 24 45  1  0  0  0
 25 46  1  0  0  0
 26 47  1  0  0  0
 26 48  1  0  0  0
 26 49  1  0  0  0
 27 50  1  0  0  0
 27 51  1  0  0  0
 27 52  1  0  0  0
 28 29  2  0  0  0
 28 30  2  0  0  0
 28 31  1  0  0  0
 31 53  1  0  0  0
M  CHG  3  15   1  20   1  31  -1
M  END
> <s_m_source_file>
/Users/andrea/Development/mcce-charges/epik_inhibitors/output/Pazopanib/Pazopanib-input.mol2

> <i_m_source_file_index>
1

> <r_epik_Ionization_Penalty>
  8.2170

> <r_epik_Ionization_Penalty_Charging>
  7.0423

> <r_epik_Ionization_Penalty_Neutral>
  1.1747

> <r_epik_State_Penalty>
 11.1299

> <i_epik_Tot_Q>
1

> <s_epik_Chemistry_Notes>
This compound has an imine and may undergo hydrolysis.

$$$$
5-[[4-[(2,3-dimethylindazol-6-yl)-methyl-amino]pyrimidin-2-yl]amino]-2-methyl-benzenesulfonamide
                    3D
 Structure written by MMmdl.
 55 58  0  0  1  0            999 V2000
   -5.7509   -5.0014    2.9714 C   0  0  0  0  0  0
   -4.8684   -4.7117    1.8015 C   0  0  0  0  0  0
   -4.5345   -3.4035    1.4508 C   0  0  0  0  0  0
   -3.7080   -3.1653    0.3526 C   0  0  0  0  0  0
   -3.2156   -4.2351   -0.3949 C   0  0  0  0  0  0
   -3.5497   -5.5432   -0.0441 C   0  0  0  0  0  0
   -4.3761   -5.7815    1.0540 C   0  0  0  0  0  0
   -2.3807   -3.9948   -1.5043 N   0  0  0  0  0  0
   -1.4559   -2.9706   -1.8017 C   0  0  0  0  0  0
   -0.8185   -3.0604   -2.9845 N   0  0  0  0  0  0
    0.0579   -2.0660   -3.2361 C   0  0  0  0  0  0
    0.3053   -1.0238   -2.3659 C   0  0  0  0  0  0
   -0.4151   -1.0447   -1.1892 C   0  0  0  0  0  0
   -1.3053   -2.0078   -0.8721 N   0  0  0  0  0  0
   -0.1931    0.0118   -0.2692 N   0  3  0  0  0  0
    0.1878    1.2933   -0.8762 C   0  0  0  0  0  0
   -0.3059   -0.0675    1.1452 C   0  0  0  0  0  0
   -1.2422    0.7721    1.7878 C   0  0  0  0  0  0
   -1.2737    0.6131    3.1855 C   0  0  0  0  0  0
   -2.0240    1.2296    4.1158 N   0  3  0  0  0  0
   -1.6339    0.6849    5.2846 N   0  0  0  0  0  0
   -0.6603   -0.2647    5.1754 C   0  0  0  0  0  0
   -0.4033   -0.3372    3.8356 C   0  0  0  0  0  0
    0.5262   -1.1757    3.2334 C   0  0  0  0  0  0
    0.5360   -0.9952    1.8361 C   0  0  0  0  0  0
   -0.1022   -0.9769    6.3405 C   0  0  0  0  0  0
   -2.2603    1.1362    6.5064 C   0  0  0  0  0  0
   -5.1346   -2.0382    2.3665 S   0  0  0  0  0  0
   -6.5791   -1.9798    2.2028 O   0  0  0  0  0  0
   -4.5562   -2.0912    3.7006 O   0  0  0  0  0  0
   -4.4270   -0.7409    1.5104 N   0  5  0  0  0  0
   -6.0498   -4.0562    3.4481 H   0  0  0  0  0  0
   -5.2051   -5.6217    3.6976 H   0  0  0  0  0  0
   -6.6474   -5.5395    2.6300 H   0  0  0  0  0  0
   -3.4466   -2.1458    0.0780 H   0  0  0  0  0  0
   -3.1715   -6.3842   -0.6197 H   0  0  0  0  0  0
   -4.6305   -6.8044    1.3188 H   0  0  0  0  0  0
   -1.0308   -3.9012   -3.6612 H   0  0  0  0  0  0
    0.5411   -2.1128   -4.1104 H   0  0  0  0  0  0
    0.9710   -0.3178   -2.6078 H   0  0  0  0  0  0
    0.3366    2.0435   -0.0856 H   0  0  0  0  0  0
   -0.6100    1.6290   -1.5549 H   0  0  0  0  0  0
    1.1223    1.1673   -1.4426 H   0  0  0  0  0  0
   -1.8039    1.3995    1.2485 H   0  0  0  0  0  0
    1.1420   -1.8407    3.6559 H   0  0  0  0  0  0
    1.1583   -1.5325    1.2668 H   0  0  0  0  0  0
    0.6641   -1.6898    6.0018 H   0  0  0  0  0  0
   -0.9064   -1.5211    6.8572 H   0  0  0  0  0  0
    0.3518   -0.2510    7.0310 H   0  0  0  0  0  0
   -1.8295    0.5942    7.3612 H   0  0  0  0  0  0
   -3.3420    0.9427    6.4570 H   0  0  0  0  0  0
   -2.0861    2.2152    6.6308 H   0  0  0  0  0  0
   -4.6074    0.2949    1.8337 H   0  0  0  0  0  0
   -2.5487   -4.8100   -2.2235 H   0  0  0  0  0  0
   -2.7551    1.9942    3.8145 H   0  0  0  0  0  0
  1  2  1  0  0  0
  1 32  1  0  0  0
  1 33  1  0  0  0
  1 34  1  0  0  0
  2  7  2  0  0  0
  2  3  1  0  0  0
  3  4  2  0  0  0
  3 28  1  0  0  0
  4  5  1  0  0  0
  4 35  1  0  0  0
  5  6  2  0  0  0
  5  8  1  0  0  0
  6  7  1  0  0  0
  6 36  1  0  0  0
  7 37  1  0  0  0
  8  9  1  0  0  0
  8 54  1  0  0  0
  9 14  2  0  0  0
  9 10  1  0  0  0
 10 38  1  0  0  0
 10 11  1  0  0  0
 11 12  2  0  0  0
 11 39  1  0  0  0
 12 40  1  0  0  0
 12 13  1  0  0  0
 13 15  2  0  0  0
 13 14  1  0  0  0
 15 16  1  0  0  0
 15 17  1  0  0  0
 16 41  1  0  0  0
 16 42  1  0  0  0
 16 43  1  0  0  0
 17 25  1  0  0  0
 17 18  2  0  0  0
 18 19  1  0  0  0
 18 44  1  0  0  0
 19 23  1  0  0  0
 19 20  2  0  0  0
 20 21  1  0  0  0
 20 55  1  0  0  0
 21 22  1  0  0  0
 21 27  1  0  0  0
 22 23  2  0  0  0
 22 26  1  0  0  0
 23 24  1  0  0  0
 24 25  2  0  0  0
 24 45  1  0  0  0
 25 46  1  0  0  0
 26 47  1  0  0  0
 26 48  1  0  0  0
 26 49  1  0  0  0
 27 50  1  0  0  0
 27 51  1  0  0  0
 27 52  1  0  0  0
 28 29  2  0  0  0
 28 30  2  0  0  0
 28 31  1  0  0  0
 31 53  1  0  0  0
M  CHG  3  15   1  20   1  31  -1
M  END
> <s_m_source_file>
/Users/andrea/Development/mcce-charges/epik_inhibitors/output/Pazopanib/Pazopanib-input.mol2

> <i_m_source_file_index>
1

> <r_epik_Ionization_Penalty>
  8.2170

> <r_epik_Ionization_Penalty_Charging>
  7.0423

> <r_epik_Ionization_Penalty_Neutral>
  1.1747

> <r_epik_State_Penalty>
 11.1299

> <i_epik_Tot_Q>
1

> <s_epik_Chemistry_Notes>
This compound has an imine and may undergo hydrolysis.

$$$$
5-[[4-[(2,3-dimethylindazol-6-yl)-methyl-amino]pyrimidin-2-yl]amino]-2-methyl-benzenesulfonamide
                    3D
 Structure written by MMmdl.
 55 58  0  0  1  0            999 V2000
   -5.7509   -5.0014    2.9714 C   0  0  0  0  0  0
   -4.8684   -4.7117    1.8015 C   0  0  0  0  0  0
   -4.5345   -3.4035    1.4508 C   0  0  0  0  0  0
   -3.7080   -3.1653    0.3526 C   0  0  0  0  0  0
   -3.2156   -4.2351   -0.3949 C   0  0  0  0  0  0
   -3.5497   -5.5432   -0.0441 C   0  0  0  0  0  0
   -4.3761   -5.7815    1.0540 C   0  0  0  0  0  0
   -2.3807   -3.9948   -1.5043 N   0  0  0  0  0  0
   -1.4559   -2.9706   -1.8017 C   0  0  0  0  0  0
   -0.8185   -3.0604   -2.9845 N   0  0  0  0  0  0
    0.0579   -2.0660   -3.2361 C   0  0  0  0  0  0
    0.3053   -1.0238   -2.3659 C   0  0  0  0  0  0
   -0.4151   -1.0447   -1.1892 C   0  0  0  0  0  0
   -1.3053   -2.0078   -0.8721 N   0  0  0  0  0  0
   -0.1931    0.0118   -0.2692 N   0  0  0  0  0  0
   -0.3798   -0.3454    1.1426 C   0  0  0  0  0  0
    0.1828    1.3435   -0.5930 C   0  0  0  0  0  0
    1.3995    1.8381   -0.0738 C   0  0  0  0  0  0
    1.6762    3.1638   -0.4555 C   0  0  0  0  0  0
    2.7223    3.9554   -0.1597 N   0  3  0  0  0  0
    2.4617    5.1160   -0.7922 N   0  0  0  0  0  0
    1.2922    5.1333   -1.4947 C   0  0  0  0  0  0
    0.7588    3.8908   -1.3001 C   0  0  0  0  0  0
   -0.4429    3.4337   -1.8261 C   0  0  0  0  0  0
   -0.6938    2.1056   -1.4280 C   0  0  0  0  0  0
    0.8319    6.3111   -2.2544 C   0  0  0  0  0  0
    3.4106    6.1999   -0.6770 C   0  0  0  0  0  0
   -5.1346   -2.0382    2.3665 S   0  0  0  0  0  0
   -6.5791   -1.9798    2.2028 O   0  0  0  0  0  0
   -4.5562   -2.0912    3.7006 O   0  0  0  0  0  0
   -4.4270   -0.7409    1.5104 N   0  0  0  0  0  0
   -6.0498   -4.0562    3.4481 H   0  0  0  0  0  0
   -5.2051   -5.6217    3.6976 H   0  0  0  0  0  0
   -6.6474   -5.5395    2.6300 H   0  0  0  0  0  0
   -3.4466   -2.1458    0.0780 H   0  0  0  0  0  0
   -3.1715   -6.3842   -0.6197 H   0  0  0  0  0  0
   -4.6305   -6.8044    1.3188 H   0  0  0  0  0  0
   -1.0308   -3.9012   -3.6612 H   0  0  0  0  0  0
    0.5411   -2.1128   -4.1104 H   0  0  0  0  0  0
    0.9710   -0.3178   -2.6078 H   0  0  0  0  0  0
   -0.1858    0.5354    1.7724 H   0  0  0  0  0  0
    0.3194   -1.1505    1.4127 H   0  0  0  0  0  0
   -1.4129   -0.6887    1.3004 H   0  0  0  0  0  0
    1.9705    1.2548    0.5039 H   0  0  0  0  0  0
   -1.0978    3.9127   -2.4106 H   0  0  0  0  0  0
   -1.5265    1.6418   -1.7306 H   0  0  0  0  0  0
   -0.1318    6.0845   -2.7339 H   0  0  0  0  0  0
    1.5748    6.5633   -3.0254 H   0  0  0  0  0  0
    0.7096    7.1638   -1.5703 H   0  0  0  0  0  0
    3.0481    7.0669   -1.2488 H   0  0  0  0  0  0
    4.3842    5.8788   -1.0758 H   0  0  0  0  0  0
    3.5218    6.4790    0.3811 H   0  0  0  0  0  0
   -4.7195    0.2104    1.9787 H   0  0  0  0  0  0
   -4.7740   -0.7578    0.4667 H   0  0  0  0  0  0
    3.5348    3.5776    0.4785 H   0  0  0  0  0  0
  1  2  1  0  0  0
  1 32  1  0  0  0
  1 33  1  0  0  0
  1 34  1  0  0  0
  2  7  2  0  0  0
  2  3  1  0  0  0
  3  4  2  0  0  0
  3 28  1  0  0  0
  4  5  1  0  0  0
  4 35  1  0  0  0
  5  6  2  0  0  0
  5  8  1  0  0  0
  6  7  1  0  0  0
  6 36  1  0  0  0
  7 37  1  0  0  0
  8  9  2  0  0  0
  9 14  1  0  0  0
  9 10  1  0  0  0
 10 38  1  0  0  0
 10 11  1  0  0  0
 11 12  2  0  0  0
 11 39  1  0  0  0
 12 40  1  0  0  0
 12 13  1  0  0  0
 13 15  1  0  0  0
 13 14  2  0  0  0
 15 16  1  0  0  0
 15 17  1  0  0  0
 16 41  1  0  0  0
 16 42  1  0  0  0
 16 43  1  0  0  0
 17 25  1  0  0  0
 17 18  2  0  0  0
 18 19  1  0  0  0
 18 44  1  0  0  0
 19 23  1  0  0  0
 19 20  2  0  0  0
 20 21  1  0  0  0
 20 55  1  0  0  0
 21 22  1  0  0  0
 21 27  1  0  0  0
 22 23  2  0  0  0
 22 26  1  0  0  0
 23 24  1  0  0  0
 24 25  2  0  0  0
 24 45  1  0  0  0
 25 46  1  0  0  0
 26 47  1  0  0  0
 26 48  1  0  0  0
 26 49  1  0  0  0
 27 50  1  0  0  0
 27 51  1  0  0  0
 27 52  1  0  0  0
 28 29  2  0  0  0
 28 30  2  0  0  0
 28 31  1  0  0  0
 31 53  1  0  0  0
 31 54  1  0  0  0
M  CHG  1  20   1
M  END
> <s_m_source_file>
/Users/andrea/Development/mcce-charges/epik_inhibitors/output/Pazopanib/Pazopanib-input.mol2

> <i_m_source_file_index>
1

> <r_epik_Ionization_Penalty>
 10.8419

> <r_epik_Ionization_Penalty_Charging>
 10.8414

> <r_epik_Ionization_Penalty_Neutral>
  0.0005

> <r_epik_State_Penalty>
 11.4116

> <i_epik_Tot_Q>
1

$$$$
5-[[4-[(2,3-dimethylindazol-6-yl)-methyl-amino]pyrimidin-2-yl]amino]-2-methyl-benzenesulfonamide
                    3D
 Structure written by MMmdl.
 56 59  0  0  1  0            999 V2000
   -5.7603   -4.9945    2.9658 C   0  0  0  0  0  0
   -4.8761   -4.7061    1.7969 C   0  0  0  0  0  0
   -4.5403   -3.3984    1.4463 C   0  0  0  0  0  0
   -3.7122   -3.1613    0.3491 C   0  0  0  0  0  0
   -3.2200   -4.2319   -0.3975 C   0  0  0  0  0  0
   -3.5560   -5.5395   -0.0468 C   0  0  0  0  0  0
   -4.3840   -5.7766    1.0503 C   0  0  0  0  0  0
   -2.3835   -3.9928   -1.5060 N   0  0  0  0  0  0
   -1.4572   -2.9696   -1.8025 C   0  0  0  0  0  0
   -0.8196   -3.0596   -2.9852 N   0  0  0  0  0  0
    0.0569   -2.0652   -3.2367 C   0  0  0  0  0  0
    0.3027   -1.0219   -2.3675 C   0  0  0  0  0  0
   -0.4151   -1.0447   -1.1892 C   0  0  0  0  0  0
   -1.3067   -2.0068   -0.8730 N   0  3  0  0  0  0
   -0.1931    0.0118   -0.2692 N   0  0  0  0  0  0
   -0.3798   -0.3454    1.1426 C   0  0  0  0  0  0
    0.4077    1.2666   -0.5590 C   0  0  0  0  0  0
    1.5870    1.6175    0.1342 C   0  0  0  0  0  0
    2.0987    2.8771   -0.2282 C   0  0  0  0  0  0
    3.1862    3.5350    0.2111 N   0  3  0  0  0  0
    3.1877    4.6915   -0.4799 N   0  0  0  0  0  0
    2.1531    4.8334   -1.3580 C   0  0  0  0  0  0
    1.4303    3.6821   -1.2225 C   0  0  0  0  0  0
    0.2718    3.3661   -1.9209 C   0  0  0  0  0  0
   -0.2175    2.1015   -1.5382 C   0  0  0  0  0  0
    1.9811    6.0279   -2.2064 C   0  0  0  0  0  0
    4.2480    5.6440   -0.2407 C   0  0  0  0  0  0
   -5.1401   -2.0322    2.3609 S   0  0  0  0  0  0
   -6.5843   -1.9722    2.1954 O   0  0  0  0  0  0
   -4.5634   -2.0854    3.6957 O   0  0  0  0  0  0
   -4.4300   -0.7359    1.5053 N   0  0  0  0  0  0
   -6.0588   -4.0488    3.4418 H   0  0  0  0  0  0
   -5.2161   -5.6152    3.6928 H   0  0  0  0  0  0
   -6.6570   -5.5318    2.6235 H   0  0  0  0  0  0
   -3.4494   -2.1422    0.0745 H   0  0  0  0  0  0
   -3.1780   -6.3811   -0.6217 H   0  0  0  0  0  0
   -4.6398   -6.7992    1.3151 H   0  0  0  0  0  0
   -2.3859   -4.6895   -2.3572 H   0  0  0  0  0  0
    0.5726   -2.1325   -4.1888 H   0  0  0  0  0  0
    1.0141   -0.2418   -2.6085 H   0  0  0  0  0  0
   -0.1858    0.5354    1.7724 H   0  0  0  0  0  0
    0.3194   -1.1505    1.4127 H   0  0  0  0  0  0
   -1.4129   -0.6887    1.3004 H   0  0  0  0  0  0
    2.0524    0.9766    0.8724 H   0  0  0  0  0  0
   -0.2141    3.9853   -2.6618 H   0  0  0  0  0  0
   -1.1283    1.7449   -2.0210 H   0  0  0  0  0  0
    1.0802    5.9105   -2.8265 H   0  0  0  0  0  0
    2.8608    6.1458   -2.8563 H   0  0  0  0  0  0
    1.8741    6.9180   -1.5690 H   0  0  0  0  0  0
    4.1001    6.5259   -0.8814 H   0  0  0  0  0  0
    5.2175    5.1797   -0.4741 H   0  0  0  0  0  0
    4.2334    5.9514    0.8154 H   0  0  0  0  0  0
   -4.7221    0.2159    1.9730 H   0  0  0  0  0  0
   -4.7757   -0.7527    0.4612 H   0  0  0  0  0  0
   -1.8900   -2.0459    0.0588 H   0  0  0  0  0  0
    3.8316    3.0808    0.9773 H   0  0  0  0  0  0
  1  2  1  0  0  0
  1 32  1  0  0  0
  1 33  1  0  0  0
  1 34  1  0  0  0
  2  7  2  0  0  0
  2  3  1  0  0  0
  3  4  2  0  0  0
  3 28  1  0  0  0
  4  5  1  0  0  0
  4 35  1  0  0  0
  5  6  2  0  0  0
  5  8  1  0  0  0
  6  7  1  0  0  0
  6 36  1  0  0  0
  7 37  1  0  0  0
  8  9  1  0  0  0
  8 38  1  0  0  0
  9 14  2  0  0  0
  9 10  1  0  0  0
 10 11  2  0  0  0
 11 12  1  0  0  0
 11 39  1  0  0  0
 12 13  2  0  0  0
 12 40  1  0  0  0
 13 14  1  0  0  0
 13 15  1  0  0  0
 14 55  1  0  0  0
 15 16  1  0  0  0
 15 17  1  0  0  0
 16 41  1  0  0  0
 16 42  1  0  0  0
 16 43  1  0  0  0
 17 25  1  0  0  0
 17 18  2  0  0  0
 18 19  1  0  0  0
 18 44  1  0  0  0
 19 23  1  0  0  0
 19 20  2  0  0  0
 20 21  1  0  0  0
 20 56  1  0  0  0
 21 22  1  0  0  0
 21 27  1  0  0  0
 22 23  2  0  0  0
 22 26  1  0  0  0
 23 24  1  0  0  0
 24 25  2  0  0  0
 24 45  1  0  0  0
 25 46  1  0  0  0
 26 47  1  0  0  0
 26 48  1  0  0  0
 26 49  1  0  0  0
 27 50  1  0  0  0
 27 51  1  0  0  0
 27 52  1  0  0  0
 28 29  2  0  0  0
 28 30  2  0  0  0
 28 31  1  0  0  0
 31 53  1  0  0  0
 31 54  1  0  0  0
M  CHG  2  14   1  20   1
M  END
> <s_m_source_file>
/Users/andrea/Development/mcce-charges/epik_inhibitors/output/Pazopanib/Pazopanib-input.mol2

> <i_m_source_file_index>
1

> <r_lp_tautomer_probability>
0.000114259796219594

> <r_epik_Ionization_Penalty>
  5.9304

> <r_epik_Ionization_Penalty_Charging>
  5.9283

> <r_epik_Ionization_Penalty_Neutral>
  0.0021

> <r_epik_State_Penalty>
 11.8065

> <i_epik_Tot_Q>
2

$$$$
5-[[4-[(2,3-dimethylindazol-6-yl)-methyl-amino]pyrimidin-2-yl]amino]-2-methyl-benzenesulfonamide
                    3D
 Structure written by MMmdl.
 54 57  0  0  1  0            999 V2000
   -5.7603   -4.9945    2.9658 C   0  0  0  0  0  0
   -4.8761   -4.7061    1.7969 C   0  0  0  0  0  0
   -4.5403   -3.3984    1.4463 C   0  0  0  0  0  0
   -3.7122   -3.1613    0.3491 C   0  0  0  0  0  0
   -3.2200   -4.2319   -0.3975 C   0  0  0  0  0  0
   -3.5560   -5.5395   -0.0468 C   0  0  0  0  0  0
   -4.3840   -5.7766    1.0503 C   0  0  0  0  0  0
   -2.3835   -3.9928   -1.5060 N   0  0  0  0  0  0
   -1.4572   -2.9696   -1.8025 C   0  0  0  0  0  0
   -0.8196   -3.0596   -2.9852 N   0  0  0  0  0  0
    0.0569   -2.0652   -3.2367 C   0  0  0  0  0  0
    0.3027   -1.0219   -2.3675 C   0  0  0  0  0  0
   -0.4151   -1.0447   -1.1892 C   0  0  0  0  0  0
   -1.3067   -2.0068   -0.8730 N   0  0  0  0  0  0
   -0.1931    0.0118   -0.2692 N   0  0  0  0  0  0
   -0.3798   -0.3454    1.1426 C   0  0  0  0  0  0
    0.4077    1.2666   -0.5590 C   0  0  0  0  0  0
    1.5870    1.6175    0.1342 C   0  0  0  0  0  0
    2.0987    2.8771   -0.2282 C   0  0  0  0  0  0
    3.1862    3.5350    0.2111 N   0  0  0  0  0  0
    3.1877    4.6915   -0.4799 N   0  0  0  0  0  0
    2.1531    4.8334   -1.3580 C   0  0  0  0  0  0
    1.4303    3.6821   -1.2225 C   0  0  0  0  0  0
    0.2718    3.3661   -1.9209 C   0  0  0  0  0  0
   -0.2175    2.1015   -1.5382 C   0  0  0  0  0  0
    1.9811    6.0279   -2.2064 C   0  0  0  0  0  0
    4.2480    5.6440   -0.2407 C   0  0  0  0  0  0
   -5.1401   -2.0322    2.3609 S   0  0  0  0  0  0
   -6.5843   -1.9722    2.1954 O   0  0  0  0  0  0
   -4.5634   -2.0854    3.6957 O   0  0  0  0  0  0
   -4.4300   -0.7359    1.5053 N   0  0  0  0  0  0
   -6.0588   -4.0488    3.4418 H   0  0  0  0  0  0
   -5.2161   -5.6152    3.6928 H   0  0  0  0  0  0
   -6.6570   -5.5318    2.6235 H   0  0  0  0  0  0
   -3.4494   -2.1422    0.0745 H   0  0  0  0  0  0
   -3.1780   -6.3811   -0.6217 H   0  0  0  0  0  0
   -4.6398   -6.7992    1.3151 H   0  0  0  0  0  0
    0.5726   -2.1325   -4.1888 H   0  0  0  0  0  0
    1.0141   -0.2418   -2.6085 H   0  0  0  0  0  0
   -0.1858    0.5354    1.7724 H   0  0  0  0  0  0
    0.3194   -1.1505    1.4127 H   0  0  0  0  0  0
   -1.4129   -0.6887    1.3004 H   0  0  0  0  0  0
    2.0524    0.9766    0.8724 H   0  0  0  0  0  0
   -0.2141    3.9853   -2.6618 H   0  0  0  0  0  0
   -1.1283    1.7449   -2.0210 H   0  0  0  0  0  0
    1.0802    5.9105   -2.8265 H   0  0  0  0  0  0
    2.8608    6.1458   -2.8563 H   0  0  0  0  0  0
    1.8741    6.9180   -1.5690 H   0  0  0  0  0  0
    4.1001    6.5259   -0.8814 H   0  0  0  0  0  0
    5.2175    5.1797   -0.4741 H   0  0  0  0  0  0
    4.2334    5.9514    0.8154 H   0  0  0  0  0  0
   -4.7221    0.2159    1.9730 H   0  0  0  0  0  0
   -4.7757   -0.7527    0.4612 H   0  0  0  0  0  0
   -1.8900   -2.0459    0.0588 H   0  0  0  0  0  0
  1  2  1  0  0  0
  1 32  1  0  0  0
  1 33  1  0  0  0
  1 34  1  0  0  0
  2  7  2  0  0  0
  2  3  1  0  0  0
  3  4  2  0  0  0
  3 28  1  0  0  0
  4  5  1  0  0  0
  4 35  1  0  0  0
  5  6  2  0  0  0
  5  8  1  0  0  0
  6  7  1  0  0  0
  6 36  1  0  0  0
  7 37  1  0  0  0
  8  9  2  0  0  0
  9 14  1  0  0  0
  9 10  1  0  0  0
 10 11  2  0  0  0
 11 12  1  0  0  0
 11 38  1  0  0  0
 12 13  2  0  0  0
 12 39  1  0  0  0
 13 14  1  0  0  0
 13 15  1  0  0  0
 14 54  1  0  0  0
 15 16  1  0  0  0
 15 17  1  0  0  0
 16 40  1  0  0  0
 16 41  1  0  0  0
 16 42  1  0  0  0
 17 25  1  0  0  0
 17 18  2  0  0  0
 18 19  1  0  0  0
 18 43  1  0  0  0
 19 23  1  0  0  0
 19 20  2  0  0  0
 20 21  1  0  0  0
 21 22  1  0  0  0
 21 27  1  0  0  0
 22 23  2  0  0  0
 22 26  1  0  0  0
 23 24  1  0  0  0
 24 25  2  0  0  0
 24 44  1  0  0  0
 25 45  1  0  0  0
 26 46  1  0  0  0
 26 47  1  0  0  0
 26 48  1  0  0  0
 27 49  1  0  0  0
 27 50  1  0  0  0
 27 51  1  0  0  0
 28 29  2  0  0  0
 28 30  2  0  0  0
 28 31  1  0  0  0
 31 52  1  0  0  0
 31 53  1  0  0  0
M  END
> <s_m_source_file>
/Users/andrea/Development/mcce-charges/epik_inhibitors/output/Pazopanib/Pazopanib-input.mol2

> <i_m_source_file_index>
1

> <r_lp_tautomer_probability>
6.14199346965811e-10

> <r_epik_Ionization_Penalty>
  6.6142

> <r_epik_Ionization_Penalty_Charging>
  6.6121

> <r_epik_Ionization_Penalty_Neutral>
  0.0022

> <r_epik_State_Penalty>
 12.2900

> <i_epik_Tot_Q>
0

$$$$
5-[[4-[(2,3-dimethylindazol-6-yl)-methyl-amino]pyrimidin-2-yl]amino]-2-methyl-benzenesulfonamide
                    3D
 Structure written by MMmdl.
 54 57  0  0  1  0            999 V2000
   -4.0998   -8.6170   -4.3475 C   0  0  0  0  0  0
   -3.6261   -7.4055   -3.6133 C   0  0  0  0  0  0
   -2.3323   -6.9130   -3.7843 C   0  0  0  0  0  0
   -1.9194   -5.7793   -3.0844 C   0  0  0  0  0  0
   -2.8003   -5.1381   -2.2133 C   0  0  0  0  0  0
   -4.0940   -5.6307   -2.0424 C   0  0  0  0  0  0
   -4.5069   -6.7643   -2.7423 C   0  0  0  0  0  0
   -2.3835   -3.9928   -1.5060 N   0  0  0  0  0  0
   -1.4572   -2.9696   -1.8025 C   0  0  0  0  0  0
   -0.8184   -3.0605   -2.9845 N   0  0  0  0  0  0
    0.0580   -2.0660   -3.2360 C   0  0  0  0  0  0
    0.3027   -1.0219   -2.3675 C   0  0  0  0  0  0
   -0.4162   -1.0439   -1.1899 C   0  0  0  0  0  0
   -1.3067   -2.0068   -0.8730 N   0  0  0  0  0  0
   -0.1938    0.0123   -0.2696 N   0  0  0  0  0  0
   -0.3801   -0.3453    1.1421 C   0  0  0  0  0  0
    0.4071    1.2671   -0.5592 C   0  0  0  0  0  0
    1.5866    1.6177    0.1337 C   0  0  0  0  0  0
    2.0984    2.8773   -0.2285 C   0  0  0  0  0  0
    3.1861    3.5349    0.2107 N   0  0  0  0  0  0
    3.1876    4.6916   -0.4799 N   0  0  0  0  0  0
    2.1527    4.8339   -1.3577 C   0  0  0  0  0  0
    1.4298    3.6827   -1.2223 C   0  0  0  0  0  0
    0.2711    3.3671   -1.9205 C   0  0  0  0  0  0
   -0.2183    2.1024   -1.5380 C   0  0  0  0  0  0
    1.9806    6.0287   -2.2057 C   0  0  0  0  0  0
    4.2481    5.6439   -0.2408 C   0  0  0  0  0  0
   -1.2016   -7.6928   -4.8689 S   0  0  0  0  0  0
   -0.8983   -9.0130   -4.3382 O   0  0  0  0  0  0
   -1.7002   -7.5533   -6.2287 O   0  0  0  0  0  0
    0.1686   -6.6912   -4.6792 N   0  0  0  0  0  0
   -3.2901   -8.9980   -4.9872 H   0  0  0  0  0  0
   -4.9662   -8.3522   -4.9714 H   0  0  0  0  0  0
   -4.3919   -9.3929   -3.6247 H   0  0  0  0  0  0
   -0.9108   -5.3941   -3.2167 H   0  0  0  0  0  0
   -4.7886   -5.1388   -1.3661 H   0  0  0  0  0  0
   -5.5170   -7.1401   -2.6019 H   0  0  0  0  0  0
    0.5434   -2.1144   -4.1090 H   0  0  0  0  0  0
    0.9655   -0.3138   -2.6110 H   0  0  0  0  0  0
   -0.1859    0.5353    1.7721 H   0  0  0  0  0  0
    0.3191   -1.1505    1.4117 H   0  0  0  0  0  0
   -1.4132   -0.6885    1.3001 H   0  0  0  0  0  0
    1.9768    0.9891    0.8065 H   0  0  0  0  0  0
   -0.2146    3.9032   -2.6109 H   0  0  0  0  0  0
   -1.0509    1.7407   -1.9575 H   0  0  0  0  0  0
    1.0795    5.9116   -2.8256 H   0  0  0  0  0  0
    2.8601    6.1467   -2.8558 H   0  0  0  0  0  0
    1.8740    6.9186   -1.5680 H   0  0  0  0  0  0
    4.1001    6.5260   -0.8811 H   0  0  0  0  0  0
    5.2174    5.1795   -0.4746 H   0  0  0  0  0  0
    4.2338    5.9510    0.8154 H   0  0  0  0  0  0
    0.9856   -7.0632   -5.3149 H   0  0  0  0  0  0
    0.4885   -6.7029   -3.6268 H   0  0  0  0  0  0
   -1.8448   -1.9645    0.0855 H   0  0  0  0  0  0
  1  2  1  0  0  0
  1 32  1  0  0  0
  1 33  1  0  0  0
  1 34  1  0  0  0
  2  7  2  0  0  0
  2  3  1  0  0  0
  3  4  2  0  0  0
  3 28  1  0  0  0
  4  5  1  0  0  0
  4 35  1  0  0  0
  5  6  2  0  0  0
  5  8  1  0  0  0
  6  7  1  0  0  0
  6 36  1  0  0  0
  7 37  1  0  0  0
  8  9  2  0  0  0
  9 14  1  0  0  0
  9 10  1  0  0  0
 10 11  2  0  0  0
 11 12  1  0  0  0
 11 38  1  0  0  0
 12 39  1  0  0  0
 12 13  2  0  0  0
 13 15  1  0  0  0
 13 14  1  0  0  0
 14 54  1  0  0  0
 15 16  1  0  0  0
 15 17  1  0  0  0
 16 40  1  0  0  0
 16 41  1  0  0  0
 16 42  1  0  0  0
 17 25  1  0  0  0
 17 18  2  0  0  0
 18 19  1  0  0  0
 18 43  1  0  0  0
 19 23  1  0  0  0
 19 20  2  0  0  0
 20 21  1  0  0  0
 21 22  1  0  0  0
 21 27  1  0  0  0
 22 23  2  0  0  0
 22 26  1  0  0  0
 23 24  1  0  0  0
 24 25  2  0  0  0
 24 44  1  0  0  0
 25 45  1  0  0  0
 26 46  1  0  0  0
 26 47  1  0  0  0
 26 48  1  0  0  0
 27 49  1  0  0  0
 27 50  1  0  0  0
 27 51  1  0  0  0
 28 29  2  0  0  0
 28 30  2  0  0  0
 28 31  1  0  0  0
 31 52  1  0  0  0
 31 53  1  0  0  0
M  END
> <s_m_source_file>
/Users/andrea/Development/mcce-charges/epik_inhibitors/output/Pazopanib/Pazopanib-input.mol2

> <i_m_source_file_index>
1

> <r_lp_tautomer_probability>
6.14199346965811e-10

> <r_epik_Ionization_Penalty>
  6.8766

> <r_epik_Ionization_Penalty_Charging>
  6.8744

> <r_epik_Ionization_Penalty_Neutral>
  0.0022

> <r_epik_State_Penalty>
 12.3075

> <i_epik_Tot_Q>
0

$$$$
5-[[4-[(2,3-dimethylindazol-6-yl)-methyl-amino]pyrimidin-2-yl]amino]-2-methyl-benzenesulfonamide
                    3D
 Structure written by MMmdl.
 53 56  0  0  1  0            999 V2000
   -5.7509   -5.0014    2.9714 C   0  0  0  0  0  0
   -4.8684   -4.7117    1.8015 C   0  0  0  0  0  0
   -4.5345   -3.4035    1.4508 C   0  0  0  0  0  0
   -3.7080   -3.1653    0.3526 C   0  0  0  0  0  0
   -3.2156   -4.2351   -0.3949 C   0  0  0  0  0  0
   -3.5497   -5.5432   -0.0441 C   0  0  0  0  0  0
   -4.3761   -5.7815    1.0540 C   0  0  0  0  0  0
   -2.3807   -3.9948   -1.5043 N   0  0  0  0  0  0
   -1.4559   -2.9706   -1.8017 C   0  0  0  0  0  0
   -0.8185   -3.0604   -2.9845 N   0  0  0  0  0  0
    0.0579   -2.0660   -3.2361 C   0  0  0  0  0  0
    0.3053   -1.0238   -2.3659 C   0  0  0  0  0  0
   -0.4151   -1.0447   -1.1892 C   0  0  0  0  0  0
   -1.3053   -2.0078   -0.8721 N   0  0  0  0  0  0
   -0.1931    0.0118   -0.2692 N   0  0  0  0  0  0
   -0.3798   -0.3454    1.1426 C   0  0  0  0  0  0
    0.1828    1.3435   -0.5930 C   0  0  0  0  0  0
    1.3995    1.8381   -0.0738 C   0  0  0  0  0  0
    1.6762    3.1638   -0.4555 C   0  0  0  0  0  0
    2.7223    3.9554   -0.1597 N   0  0  0  0  0  0
    2.4617    5.1160   -0.7922 N   0  0  0  0  0  0
    1.2922    5.1333   -1.4947 C   0  0  0  0  0  0
    0.7588    3.8908   -1.3001 C   0  0  0  0  0  0
   -0.4429    3.4337   -1.8261 C   0  0  0  0  0  0
   -0.6938    2.1056   -1.4280 C   0  0  0  0  0  0
    0.8319    6.3111   -2.2544 C   0  0  0  0  0  0
    3.4106    6.1999   -0.6770 C   0  0  0  0  0  0
   -5.1346   -2.0382    2.3665 S   0  0  0  0  0  0
   -6.5791   -1.9798    2.2028 O   0  0  0  0  0  0
   -4.5562   -2.0912    3.7006 O   0  0  0  0  0  0
   -4.4270   -0.7409    1.5104 N   0  5  0  0  0  0
   -6.0498   -4.0562    3.4481 H   0  0  0  0  0  0
   -5.2051   -5.6217    3.6976 H   0  0  0  0  0  0
   -6.6474   -5.5395    2.6300 H   0  0  0  0  0  0
   -3.4466   -2.1458    0.0780 H   0  0  0  0  0  0
   -3.1715   -6.3842   -0.6197 H   0  0  0  0  0  0
   -4.6305   -6.8044    1.3188 H   0  0  0  0  0  0
   -1.0308   -3.9012   -3.6612 H   0  0  0  0  0  0
    0.5411   -2.1128   -4.1104 H   0  0  0  0  0  0
    0.9710   -0.3178   -2.6078 H   0  0  0  0  0  0
   -0.1858    0.5354    1.7724 H   0  0  0  0  0  0
    0.3194   -1.1505    1.4127 H   0  0  0  0  0  0
   -1.4129   -0.6887    1.3004 H   0  0  0  0  0  0
    1.9705    1.2548    0.5039 H   0  0  0  0  0  0
   -1.0978    3.9127   -2.4106 H   0  0  0  0  0  0
   -1.5265    1.6418   -1.7306 H   0  0  0  0  0  0
   -0.1318    6.0845   -2.7339 H   0  0  0  0  0  0
    1.5748    6.5633   -3.0254 H   0  0  0  0  0  0
    0.7096    7.1638   -1.5703 H   0  0  0  0  0  0
    3.0481    7.0669   -1.2488 H   0  0  0  0  0  0
    4.3842    5.8788   -1.0758 H   0  0  0  0  0  0
    3.5218    6.4790    0.3811 H   0  0  0  0  0  0
   -4.6074    0.2949    1.8337 H   0  0  0  0  0  0
  1  2  1  0  0  0
  1 32  1  0  0  0
  1 33  1  0  0  0
  1 34  1  0  0  0
  2  7  2  0  0  0
  2  3  1  0  0  0
  3  4  2  0  0  0
  3 28  1  0  0  0
  4  5  1  0  0  0
  4 35  1  0  0  0
  5  6  2  0  0  0
  5  8  1  0  0  0
  6  7  1  0  0  0
  6 36  1  0  0  0
  7 37  1  0  0  0
  8  9  2  0  0  0
  9 14  1  0  0  0
  9 10  1  0  0  0
 10 38  1  0  0  0
 10 11  1  0  0  0
 11 12  2  0  0  0
 11 39  1  0  0  0
 12 40  1  0  0  0
 12 13  1  0  0  0
 13 15  1  0  0  0
 13 14  2  0  0  0
 15 16  1  0  0  0
 15 17  1  0  0  0
 16 41  1  0  0  0
 16 42  1  0  0  0
 16 43  1  0  0  0
 17 25  1  0  0  0
 17 18  2  0  0  0
 18 19  1  0  0  0
 18 44  1  0  0  0
 19 23  1  0  0  0
 19 20  2  0  0  0
 20 21  1  0  0  0
 21 22  1  0  0  0
 21 27  1  0  0  0
 22 23  2  0  0  0
 22 26  1  0  0  0
 23 24  1  0  0  0
 24 25  2  0  0  0
 24 45  1  0  0  0
 25 46  1  0  0  0
 26 47  1  0  0  0
 26 48  1  0  0  0
 26 49  1  0  0  0
 27 50  1  0  0  0
 27 51  1  0  0  0
 27 52  1  0  0  0
 28 29  2  0  0  0
 28 30  2  0  0  0
 28 31  1  0  0  0
 31 53  1  0  0  0
M  CHG  1  31  -1
M  END
> <s_m_source_file>
/Users/andrea/Development/mcce-charges/epik_inhibitors/output/Pazopanib/Pazopanib-input.mol2

> <i_m_source_file_index>
1

> <r_lp_tautomer_probability>
5.3099943542632e-07

> <r_epik_Ionization_Penalty>
 11.5966

> <r_epik_Ionization_Penalty_Charging>
 11.5950

> <r_epik_Ionization_Penalty_Neutral>
  0.0017

> <r_epik_State_Penalty>
 12.5967

> <i_epik_Tot_Q>
-1

$$$$
