@<TRIPOS>MOLECULE
5-[[4-[(2,3-dimethylindazol-6-yl)-methyl-amino]pyrimidin-2-yl]amino]-2-methyl-benzenesulfonamide
54   57    1
SMALL
USER_CHARGES


@<TRIPOS>ATOM
      1 C1         -5.7603   -4.9945    2.9658 C.3       1 PAZ        -0.0734 
      2 C2         -4.8761   -4.7061    1.7969 C.ar      1 PAZ         0.0254 
      3 C3         -4.5403   -3.3984    1.4463 C.ar      1 PAZ        -0.3573 
      4 C4         -3.7122   -3.1613    0.3491 C.ar      1 PAZ        -0.0858 
      5 C5         -3.2200   -4.2319   -0.3975 C.ar      1 PAZ         0.1399 
      6 C6         -3.5560   -5.5395   -0.0468 C.ar      1 PAZ        -0.0678 
      7 C7         -4.3840   -5.7766    1.0503 C.ar      1 PAZ        -0.1454 
      8 N1         -2.3835   -3.9928   -1.5060 N.pl3     1 PAZ        -0.7355 
      9 C8         -1.4572   -2.9696   -1.8025 C.ar      1 PAZ         0.9123 
     10 N2         -0.8196   -3.0596   -2.9852 N.ar      1 PAZ        -0.7691 
     11 C9          0.0569   -2.0652   -3.2367 C.ar      1 PAZ         0.4773 
     12 C10         0.3027   -1.0219   -2.3675 C.ar      1 PAZ        -0.4560 
     13 C11        -0.4151   -1.0447   -1.1892 C.ar      1 PAZ         0.7348 
     14 N3         -1.3067   -2.0068   -0.8730 N.ar      1 PAZ        -0.8129 
     15 N4         -0.1931    0.0118   -0.2692 N.pl3     1 PAZ        -0.6753 
     16 C12        -0.3798   -0.3454    1.1426 C.3       1 PAZ         0.2106 
     17 C13         0.4077    1.2666   -0.5590 C.ar      1 PAZ         0.1460 
     18 C14         1.5870    1.6175    0.1342 C.ar      1 PAZ        -0.2289 
     19 C15         2.0987    2.8771   -0.2282 C.ar      1 PAZ         0.3735 
     20 N5          3.1862    3.5350    0.2111 N.2       1 PAZ        -0.5266 
     21 N6          3.1877    4.6915   -0.4799 N.pl3     1 PAZ         0.1500 
     22 C16         2.1531    4.8334   -1.3580 C.ar      1 PAZ        -0.1003 
     23 C17         1.4303    3.6821   -1.2225 C.ar      1 PAZ        -0.2201 
     24 C18         0.2718    3.3661   -1.9209 C.ar      1 PAZ        -0.0538 
     25 C19        -0.2175    2.1015   -1.5382 C.ar      1 PAZ        -0.1506 
     26 C20         1.9811    6.0279   -2.2064 C.3       1 PAZ        -0.0311 
     27 C21         4.2480    5.6440   -0.2407 C.3       1 PAZ         0.0270 
     28 S1         -5.1401   -2.0322    2.3609 S.o2      1 PAZ         1.5219 
     29 O1         -6.5843   -1.9722    2.1954 O.2       1 PAZ        -0.6587 
     30 O2         -4.5634   -2.0854    3.6957 O.2       1 PAZ        -0.6587 
     31 N7         -4.4300   -0.7359    1.5053 N.pl3     1 PAZ        -1.0249 
     32 H1         -6.0588   -4.0488    3.4418 H         1 PAZ         0.0577 
     33 H2         -5.2161   -5.6152    3.6928 H         1 PAZ         0.0577 
     34 H3         -6.6570   -5.5318    2.6235 H         1 PAZ         0.0577 
     35 H4         -3.4494   -2.1422    0.0745 H         1 PAZ         0.1592 
     36 H5         -3.1780   -6.3811   -0.6217 H         1 PAZ         0.1647 
     37 H6         -4.6398   -6.7992    1.3151 H         1 PAZ         0.1405 
     38 H7         -2.3859   -4.6895   -2.3572 H         1 PAZ         0.4556 
     39 H8          0.5726   -2.1325   -4.1888 H         1 PAZ         0.0262 
     40 H9          1.0141   -0.2418   -2.6085 H         1 PAZ         0.1643 
     41 H10        -0.1858    0.5354    1.7724 H         1 PAZ         0.0492 
     42 H11         0.3194   -1.1505    1.4127 H         1 PAZ         0.0492 
     43 H12        -1.4129   -0.6887    1.3004 H         1 PAZ         0.0492 
     44 H13         2.0524    0.9766    0.8724 H         1 PAZ         0.1521 
     45 H14        -0.2141    3.9853   -2.6618 H         1 PAZ         0.1346 
     46 H15        -1.1283    1.7449   -2.0210 H         1 PAZ         0.1435 
     47 H16         1.0802    5.9105   -2.8265 H         1 PAZ         0.0550 
     48 H17         2.8608    6.1458   -2.8563 H         1 PAZ         0.0550 
     49 H18         1.8741    6.9180   -1.5690 H         1 PAZ         0.0550 
     50 H19         4.1001    6.5259   -0.8814 H         1 PAZ         0.0651 
     51 H20         5.2175    5.1797   -0.4741 H         1 PAZ         0.0651 
     52 H21         4.2334    5.9514    0.8154 H         1 PAZ         0.0651 
     53 H22        -4.7221    0.2159    1.9730 H         1 PAZ         0.4460 
     54 H23        -4.7757   -0.7527    0.4612 H         1 PAZ         0.4460 
@<TRIPOS>BOND
     1    1    2 1    
     2    1   32 1    
     3    1   33 1    
     4    1   34 1    
     5    2    7 ar   
     6    2    3 ar   
     7    3    4 ar   
     8    3   28 1    
     9    4    5 ar   
    10    4   35 1    
    11    5    6 ar   
    12    5    8 1    
    13    6    7 ar   
    14    6   36 1    
    15    7   37 1    
    16    8    9 1    
    17    8   38 1    
    18    9   14 ar   
    19    9   10 ar   
    20   10   11 ar   
    21   11   12 ar   
    22   11   39 1    
    23   12   13 ar   
    24   12   40 1    
    25   13   14 ar   
    26   13   15 1    
    27   15   16 1    
    28   15   17 1    
    29   16   41 1    
    30   16   42 1    
    31   16   43 1    
    32   17   25 ar   
    33   17   18 ar   
    34   18   19 ar   
    35   18   44 1    
    36   19   23 ar   
    37   19   20 ar   
    38   20   21 ar   
    39   21   22 ar   
    40   21   27 1    
    41   22   23 ar   
    42   22   26 1    
    43   23   24 ar   
    44   24   25 ar   
    45   24   45 1    
    46   25   46 1    
    47   26   47 1    
    48   26   48 1    
    49   26   49 1    
    50   27   50 1    
    51   27   51 1    
    52   27   52 1    
    53   28   29 2    
    54   28   30 2    
    55   28   31 1    
    56   31   53 1    
    57   31   54 1    
@<TRIPOS>SUBSTRUCTURE
     1 PAZ         1 GROUP             0       ****    0 ROOT    
@<TRIPOS>MOLECULE
5-[[4-[(2,3-dimethylindazol-6-yl)-methyl-amino]pyrimidin-2-yl]amino]-2-methyl-benzenesulfonamide
55   58    1
SMALL
USER_CHARGES


@<TRIPOS>ATOM
      1 C1         -5.7509   -5.0014    2.9714 C.3       1 PAZ        -0.0734 
      2 C2         -4.8684   -4.7117    1.8015 C.ar      1 PAZ         0.0254 
      3 C3         -4.5345   -3.4035    1.4508 C.ar      1 PAZ        -0.3573 
      4 C4         -3.7080   -3.1653    0.3526 C.ar      1 PAZ        -0.0858 
      5 C5         -3.2156   -4.2351   -0.3949 C.ar      1 PAZ         0.1399 
      6 C6         -3.5497   -5.5432   -0.0441 C.ar      1 PAZ        -0.0678 
      7 C7         -4.3761   -5.7815    1.0540 C.ar      1 PAZ        -0.1454 
      8 N1         -2.3807   -3.9948   -1.5043 N.pl3     1 PAZ        -0.7355 
      9 C8         -1.4559   -2.9706   -1.8017 C.ar      1 PAZ         0.9123 
     10 N2         -0.8185   -3.0604   -2.9845 N.pl3     1 PAZ        -0.7691 
     11 C9          0.0579   -2.0660   -3.2361 C.ar      1 PAZ         0.4773 
     12 C10         0.3053   -1.0238   -2.3659 C.ar      1 PAZ        -0.4560 
     13 C11        -0.4151   -1.0447   -1.1892 C.ar      1 PAZ         0.7348 
     14 N3         -1.3053   -2.0078   -0.8721 N.2       1 PAZ        -0.8129 
     15 N4         -0.1931    0.0118   -0.2692 N.pl3     1 PAZ        -0.6753 
     16 C12        -0.3798   -0.3454    1.1426 C.3       1 PAZ         0.2106 
     17 C13         0.1828    1.3435   -0.5930 C.ar      1 PAZ         0.1460 
     18 C14         1.3995    1.8381   -0.0738 C.ar      1 PAZ        -0.2289 
     19 C15         1.6762    3.1638   -0.4555 C.ar      1 PAZ         0.3735 
     20 N5          2.7223    3.9554   -0.1597 N.2       1 PAZ        -0.5266 
     21 N6          2.4617    5.1160   -0.7922 N.pl3     1 PAZ         0.1500 
     22 C16         1.2922    5.1333   -1.4947 C.ar      1 PAZ        -0.1003 
     23 C17         0.7588    3.8908   -1.3001 C.ar      1 PAZ        -0.2201 
     24 C18        -0.4429    3.4337   -1.8261 C.ar      1 PAZ        -0.0538 
     25 C19        -0.6938    2.1056   -1.4280 C.ar      1 PAZ        -0.1506 
     26 C20         0.8319    6.3111   -2.2544 C.3       1 PAZ        -0.0311 
     27 C21         3.4106    6.1999   -0.6770 C.3       1 PAZ         0.0270 
     28 S1         -5.1346   -2.0382    2.3665 S.o2      1 PAZ         1.5219 
     29 O1         -6.5791   -1.9798    2.2028 O.2       1 PAZ        -0.6587 
     30 O2         -4.5562   -2.0912    3.7006 O.2       1 PAZ        -0.6587 
     31 N7         -4.4270   -0.7409    1.5104 N.pl3     1 PAZ        -1.0249 
     32 H1         -6.0498   -4.0562    3.4481 H         1 PAZ         0.0577 
     33 H2         -5.2051   -5.6217    3.6976 H         1 PAZ         0.0577 
     34 H3         -6.6474   -5.5395    2.6300 H         1 PAZ         0.0577 
     35 H4         -3.4466   -2.1458    0.0780 H         1 PAZ         0.1592 
     36 H5         -3.1715   -6.3842   -0.6197 H         1 PAZ         0.1647 
     37 H6         -4.6305   -6.8044    1.3188 H         1 PAZ         0.1405 
     38 H7         -1.0308   -3.9012   -3.6612 H         1 PAZ         0.4556 
     39 H8          0.5411   -2.1128   -4.1104 H         1 PAZ         0.0262 
     40 H9          0.9710   -0.3178   -2.6078 H         1 PAZ         0.1643 
     41 H10        -0.1858    0.5354    1.7724 H         1 PAZ         0.0492 
     42 H11         0.3194   -1.1505    1.4127 H         1 PAZ         0.0492 
     43 H12        -1.4129   -0.6887    1.3004 H         1 PAZ         0.0492 
     44 H13         1.9705    1.2548    0.5039 H         1 PAZ         0.1521 
     45 H14        -1.0978    3.9127   -2.4106 H         1 PAZ         0.1346 
     46 H15        -1.5265    1.6418   -1.7306 H         1 PAZ         0.1435 
     47 H16        -0.1318    6.0845   -2.7339 H         1 PAZ         0.0550 
     48 H17         1.5748    6.5633   -3.0254 H         1 PAZ         0.0550 
     49 H18         0.7096    7.1638   -1.5703 H         1 PAZ         0.0550 
     50 H19         3.0481    7.0669   -1.2488 H         1 PAZ         0.0651 
     51 H20         4.3842    5.8788   -1.0758 H         1 PAZ         0.0651 
     52 H21         3.5218    6.4790    0.3811 H         1 PAZ         0.0651 
     53 H22        -4.7195    0.2104    1.9787 H         1 PAZ         0.4460 
     54 H23        -4.7740   -0.7578    0.4667 H         1 PAZ         0.4460 
     55 H55        -2.5487   -4.8100   -2.2235 H         1 PAZ         0.0000 
@<TRIPOS>BOND
     1    1    2 1    
     2    1   32 1    
     3    1   33 1    
     4    1   34 1    
     5    2    7 ar   
     6    2    3 ar   
     7    3    4 ar   
     8    3   28 1    
     9    4    5 ar   
    10    4   35 1    
    11    5    6 ar   
    12    5    8 1    
    13    6    7 ar   
    14    6   36 1    
    15    7   37 1    
    16    8    9 1    
    17    8   55 1    
    18    9   14 ar   
    19    9   10 ar   
    20   10   38 1    
    21   10   11 ar   
    22   11   12 ar   
    23   11   39 1    
    24   12   40 1    
    25   12   13 ar   
    26   13   15 2    
    27   13   14 ar   
    28   15   16 1    
    29   15   17 1    
    30   16   41 1    
    31   16   42 1    
    32   16   43 1    
    33   17   25 ar   
    34   17   18 ar   
    35   18   19 ar   
    36   18   44 1    
    37   19   23 ar   
    38   19   20 ar   
    39   20   21 ar   
    40   21   22 ar   
    41   21   27 1    
    42   22   23 ar   
    43   22   26 1    
    44   23   24 ar   
    45   24   25 ar   
    46   24   45 1    
    47   25   46 1    
    48   26   47 1    
    49   26   48 1    
    50   26   49 1    
    51   27   50 1    
    52   27   51 1    
    53   27   52 1    
    54   28   29 2    
    55   28   30 2    
    56   28   31 1    
    57   31   53 1    
    58   31   54 1    
@<TRIPOS>SUBSTRUCTURE
     1 PAZ         1 GROUP             0       ****    0 ROOT    
@<TRIPOS>MOLECULE
5-[[4-[(2,3-dimethylindazol-6-yl)-methyl-amino]pyrimidin-2-yl]amino]-2-methyl-benzenesulfonamide
55   58    1
SMALL
USER_CHARGES


@<TRIPOS>ATOM
      1 C1         -5.7509   -5.0014    2.9714 C.3       1 PAZ        -0.0734 
      2 C2         -4.8684   -4.7117    1.8015 C.ar      1 PAZ         0.0254 
      3 C3         -4.5345   -3.4035    1.4508 C.ar      1 PAZ        -0.3573 
      4 C4         -3.7080   -3.1653    0.3526 C.ar      1 PAZ        -0.0858 
      5 C5         -3.2156   -4.2351   -0.3949 C.ar      1 PAZ         0.1399 
      6 C6         -3.5497   -5.5432   -0.0441 C.ar      1 PAZ        -0.0678 
      7 C7         -4.3761   -5.7815    1.0540 C.ar      1 PAZ        -0.1454 
      8 N1         -2.3807   -3.9948   -1.5043 N.pl3     1 PAZ        -0.7355 
      9 C8         -1.4559   -2.9706   -1.8017 C.ar      1 PAZ         0.9123 
     10 N2         -0.8185   -3.0604   -2.9845 N.pl3     1 PAZ        -0.7691 
     11 C9          0.0579   -2.0660   -3.2361 C.ar      1 PAZ         0.4773 
     12 C10         0.3053   -1.0238   -2.3659 C.ar      1 PAZ        -0.4560 
     13 C11        -0.4151   -1.0447   -1.1892 C.ar      1 PAZ         0.7348 
     14 N3         -1.3053   -2.0078   -0.8721 N.2       1 PAZ        -0.8129 
     15 N4         -0.1931    0.0118   -0.2692 N.pl3     1 PAZ        -0.6753 
     16 C12         0.1878    1.2933   -0.8762 C.3       1 PAZ         0.2106 
     17 C13        -0.3059   -0.0675    1.1452 C.ar      1 PAZ         0.1460 
     18 C14        -1.2422    0.7721    1.7878 C.ar      1 PAZ        -0.2289 
     19 C15        -1.2737    0.6131    3.1855 C.ar      1 PAZ         0.3735 
     20 N5         -2.0240    1.2296    4.1158 N.2       1 PAZ        -0.5266 
     21 N6         -1.6339    0.6849    5.2846 N.pl3     1 PAZ         0.1500 
     22 C16        -0.6603   -0.2647    5.1754 C.ar      1 PAZ        -0.1003 
     23 C17        -0.4033   -0.3372    3.8356 C.ar      1 PAZ        -0.2201 
     24 C18         0.5262   -1.1757    3.2334 C.ar      1 PAZ        -0.0538 
     25 C19         0.5360   -0.9952    1.8361 C.ar      1 PAZ        -0.1506 
     26 C20        -0.1022   -0.9769    6.3405 C.3       1 PAZ        -0.0311 
     27 C21        -2.2603    1.1362    6.5064 C.3       1 PAZ         0.0270 
     28 S1         -5.1346   -2.0382    2.3665 S.o2      1 PAZ         1.5219 
     29 O1         -6.5791   -1.9798    2.2028 O.2       1 PAZ        -0.6587 
     30 O2         -4.5562   -2.0912    3.7006 O.2       1 PAZ        -0.6587 
     31 N7         -4.4270   -0.7409    1.5104 N.pl3     1 PAZ        -1.0249 
     32 H1         -6.0498   -4.0562    3.4481 H         1 PAZ         0.0577 
     33 H2         -5.2051   -5.6217    3.6976 H         1 PAZ         0.0577 
     34 H3         -6.6474   -5.5395    2.6300 H         1 PAZ         0.0577 
     35 H4         -3.4466   -2.1458    0.0780 H         1 PAZ         0.1592 
     36 H5         -3.1715   -6.3842   -0.6197 H         1 PAZ         0.1647 
     37 H6         -4.6305   -6.8044    1.3188 H         1 PAZ         0.1405 
     38 H7         -1.0308   -3.9012   -3.6612 H         1 PAZ         0.4556 
     39 H8          0.5411   -2.1128   -4.1104 H         1 PAZ         0.0262 
     40 H9          0.9710   -0.3178   -2.6078 H         1 PAZ         0.1643 
     41 H10         0.3366    2.0435   -0.0856 H         1 PAZ         0.0492 
     42 H11        -0.6100    1.6290   -1.5549 H         1 PAZ         0.0492 
     43 H12         1.1223    1.1673   -1.4426 H         1 PAZ         0.0492 
     44 H13        -1.8039    1.3995    1.2485 H         1 PAZ         0.1521 
     45 H14         1.1420   -1.8407    3.6559 H         1 PAZ         0.1346 
     46 H15         1.1583   -1.5325    1.2668 H         1 PAZ         0.1435 
     47 H16         0.6641   -1.6898    6.0018 H         1 PAZ         0.0550 
     48 H17        -0.9064   -1.5211    6.8572 H         1 PAZ         0.0550 
     49 H18         0.3518   -0.2510    7.0310 H         1 PAZ         0.0550 
     50 H19        -1.8295    0.5942    7.3612 H         1 PAZ         0.0651 
     51 H20        -3.3420    0.9427    6.4570 H         1 PAZ         0.0651 
     52 H21        -2.0861    2.2152    6.6308 H         1 PAZ         0.0651 
     53 H22        -4.7195    0.2104    1.9787 H         1 PAZ         0.4460 
     54 H23        -4.7740   -0.7578    0.4667 H         1 PAZ         0.4460 
     55 H55        -2.5487   -4.8100   -2.2235 H         1 PAZ         0.0000 
@<TRIPOS>BOND
     1    1    2 1    
     2    1   32 1    
     3    1   33 1    
     4    1   34 1    
     5    2    7 ar   
     6    2    3 ar   
     7    3    4 ar   
     8    3   28 1    
     9    4    5 ar   
    10    4   35 1    
    11    5    6 ar   
    12    5    8 1    
    13    6    7 ar   
    14    6   36 1    
    15    7   37 1    
    16    8    9 1    
    17    8   55 1    
    18    9   14 ar   
    19    9   10 ar   
    20   10   38 1    
    21   10   11 ar   
    22   11   12 ar   
    23   11   39 1    
    24   12   40 1    
    25   12   13 ar   
    26   13   15 2    
    27   13   14 ar   
    28   15   16 1    
    29   15   17 1    
    30   16   41 1    
    31   16   42 1    
    32   16   43 1    
    33   17   25 ar   
    34   17   18 ar   
    35   18   19 ar   
    36   18   44 1    
    37   19   23 ar   
    38   19   20 ar   
    39   20   21 ar   
    40   21   22 ar   
    41   21   27 1    
    42   22   23 ar   
    43   22   26 1    
    44   23   24 ar   
    45   24   25 ar   
    46   24   45 1    
    47   25   46 1    
    48   26   47 1    
    49   26   48 1    
    50   26   49 1    
    51   27   50 1    
    52   27   51 1    
    53   27   52 1    
    54   28   29 2    
    55   28   30 2    
    56   28   31 1    
    57   31   53 1    
    58   31   54 1    
@<TRIPOS>SUBSTRUCTURE
     1 PAZ         1 GROUP             0       ****    0 ROOT    
@<TRIPOS>MOLECULE
5-[[4-[(2,3-dimethylindazol-6-yl)-methyl-amino]pyrimidin-2-yl]amino]-2-methyl-benzenesulfonamide
55   58    1
SMALL
USER_CHARGES


@<TRIPOS>ATOM
      1 C1         -5.7603   -4.9945    2.9658 C.3       1 PAZ        -0.0734 
      2 C2         -4.8761   -4.7061    1.7969 C.ar      1 PAZ         0.0254 
      3 C3         -4.5403   -3.3984    1.4463 C.ar      1 PAZ        -0.3573 
      4 C4         -3.7122   -3.1613    0.3491 C.ar      1 PAZ        -0.0858 
      5 C5         -3.2200   -4.2319   -0.3975 C.ar      1 PAZ         0.1399 
      6 C6         -3.5560   -5.5395   -0.0468 C.ar      1 PAZ        -0.0678 
      7 C7         -4.3840   -5.7766    1.0503 C.ar      1 PAZ        -0.1454 
      8 N1         -2.3835   -3.9928   -1.5060 N.pl3     1 PAZ        -0.7355 
      9 C8         -1.4572   -2.9696   -1.8025 C.ar      1 PAZ         0.9123 
     10 N2         -0.8196   -3.0596   -2.9852 N.pl3     1 PAZ        -0.7691 
     11 C9          0.0569   -2.0652   -3.2367 C.ar      1 PAZ         0.4773 
     12 C10         0.3027   -1.0219   -2.3675 C.ar      1 PAZ        -0.4560 
     13 C11        -0.4151   -1.0447   -1.1892 C.ar      1 PAZ         0.7348 
     14 N3         -1.3067   -2.0068   -0.8730 N.ar      1 PAZ        -0.8129 
     15 N4         -0.1931    0.0118   -0.2692 N.pl3     1 PAZ        -0.6753 
     16 C12        -0.3798   -0.3454    1.1426 C.3       1 PAZ         0.2106 
     17 C13         0.4077    1.2666   -0.5590 C.ar      1 PAZ         0.1460 
     18 C14         1.5870    1.6175    0.1342 C.ar      1 PAZ        -0.2289 
     19 C15         2.0987    2.8771   -0.2282 C.ar      1 PAZ         0.3735 
     20 N5          3.1862    3.5350    0.2111 N.2       1 PAZ        -0.5266 
     21 N6          3.1877    4.6915   -0.4799 N.pl3     1 PAZ         0.1500 
     22 C16         2.1531    4.8334   -1.3580 C.ar      1 PAZ        -0.1003 
     23 C17         1.4303    3.6821   -1.2225 C.ar      1 PAZ        -0.2201 
     24 C18         0.2718    3.3661   -1.9209 C.ar      1 PAZ        -0.0538 
     25 C19        -0.2175    2.1015   -1.5382 C.ar      1 PAZ        -0.1506 
     26 C20         1.9811    6.0279   -2.2064 C.3       1 PAZ        -0.0311 
     27 C21         4.2480    5.6440   -0.2407 C.3       1 PAZ         0.0270 
     28 S1         -5.1401   -2.0322    2.3609 S.o2      1 PAZ         1.5219 
     29 O1         -6.5843   -1.9722    2.1954 O.2       1 PAZ        -0.6587 
     30 O2         -4.5634   -2.0854    3.6957 O.2       1 PAZ        -0.6587 
     31 N7         -4.4300   -0.7359    1.5053 N.pl3     1 PAZ        -1.0249 
     32 H1         -6.0588   -4.0488    3.4418 H         1 PAZ         0.0577 
     33 H2         -5.2161   -5.6152    3.6928 H         1 PAZ         0.0577 
     34 H3         -6.6570   -5.5318    2.6235 H         1 PAZ         0.0577 
     35 H4         -3.4494   -2.1422    0.0745 H         1 PAZ         0.1592 
     36 H5         -3.1780   -6.3811   -0.6217 H         1 PAZ         0.1647 
     37 H6         -4.6398   -6.7992    1.3151 H         1 PAZ         0.1405 
     38 H7         -2.3859   -4.6895   -2.3572 H         1 PAZ         0.4556 
     39 H8          0.5726   -2.1325   -4.1888 H         1 PAZ         0.0262 
     40 H9          1.0141   -0.2418   -2.6085 H         1 PAZ         0.1643 
     41 H10        -0.1858    0.5354    1.7724 H         1 PAZ         0.0492 
     42 H11         0.3194   -1.1505    1.4127 H         1 PAZ         0.0492 
     43 H12        -1.4129   -0.6887    1.3004 H         1 PAZ         0.0492 
     44 H13         2.0524    0.9766    0.8724 H         1 PAZ         0.1521 
     45 H14        -0.2141    3.9853   -2.6618 H         1 PAZ         0.1346 
     46 H15        -1.1283    1.7449   -2.0210 H         1 PAZ         0.1435 
     47 H16         1.0802    5.9105   -2.8265 H         1 PAZ         0.0550 
     48 H17         2.8608    6.1458   -2.8563 H         1 PAZ         0.0550 
     49 H18         1.8741    6.9180   -1.5690 H         1 PAZ         0.0550 
     50 H19         4.1001    6.5259   -0.8814 H         1 PAZ         0.0651 
     51 H20         5.2175    5.1797   -0.4741 H         1 PAZ         0.0651 
     52 H21         4.2334    5.9514    0.8154 H         1 PAZ         0.0651 
     53 H22        -4.7221    0.2159    1.9730 H         1 PAZ         0.4460 
     54 H23        -4.7757   -0.7527    0.4612 H         1 PAZ         0.4460 
     55 H55        -1.0319   -3.9005   -3.6619 H         1 PAZ         0.0000 
@<TRIPOS>BOND
     1    1    2 1    
     2    1   32 1    
     3    1   33 1    
     4    1   34 1    
     5    2    7 ar   
     6    2    3 ar   
     7    3    4 ar   
     8    3   28 1    
     9    4    5 ar   
    10    4   35 1    
    11    5    6 ar   
    12    5    8 1    
    13    6    7 ar   
    14    6   36 1    
    15    7   37 1    
    16    8    9 1    
    17    8   38 1    
    18    9   14 ar   
    19    9   10 ar   
    20   10   11 ar   
    21   10   55 1    
    22   11   12 ar   
    23   11   39 1    
    24   12   13 ar   
    25   12   40 1    
    26   13   14 ar   
    27   13   15 1    
    28   15   16 1    
    29   15   17 1    
    30   16   41 1    
    31   16   42 1    
    32   16   43 1    
    33   17   25 ar   
    34   17   18 ar   
    35   18   19 ar   
    36   18   44 1    
    37   19   23 ar   
    38   19   20 ar   
    39   20   21 ar   
    40   21   22 ar   
    41   21   27 1    
    42   22   23 ar   
    43   22   26 1    
    44   23   24 ar   
    45   24   25 ar   
    46   24   45 1    
    47   25   46 1    
    48   26   47 1    
    49   26   48 1    
    50   26   49 1    
    51   27   50 1    
    52   27   51 1    
    53   27   52 1    
    54   28   29 2    
    55   28   30 2    
    56   28   31 1    
    57   31   53 1    
    58   31   54 1    
@<TRIPOS>SUBSTRUCTURE
     1 PAZ         1 GROUP             0       ****    0 ROOT    
@<TRIPOS>MOLECULE
5-[[4-[(2,3-dimethylindazol-6-yl)-methyl-amino]pyrimidin-2-yl]amino]-2-methyl-benzenesulfonamide
55   58    1
SMALL
USER_CHARGES


@<TRIPOS>ATOM
      1 C1         -5.7603   -4.9945    2.9658 C.3       1 PAZ        -0.0734 
      2 C2         -4.8761   -4.7061    1.7969 C.ar      1 PAZ         0.0254 
      3 C3         -4.5403   -3.3984    1.4463 C.ar      1 PAZ        -0.3573 
      4 C4         -3.7122   -3.1613    0.3491 C.ar      1 PAZ        -0.0858 
      5 C5         -3.2200   -4.2319   -0.3975 C.ar      1 PAZ         0.1399 
      6 C6         -3.5560   -5.5395   -0.0468 C.ar      1 PAZ        -0.0678 
      7 C7         -4.3840   -5.7766    1.0503 C.ar      1 PAZ        -0.1454 
      8 N1         -2.3835   -3.9928   -1.5060 N.pl3     1 PAZ        -0.7355 
      9 C8         -1.4572   -2.9696   -1.8025 C.ar      1 PAZ         0.9123 
     10 N2         -0.8196   -3.0596   -2.9852 N.ar      1 PAZ        -0.7691 
     11 C9          0.0569   -2.0652   -3.2367 C.ar      1 PAZ         0.4773 
     12 C10         0.3027   -1.0219   -2.3675 C.ar      1 PAZ        -0.4560 
     13 C11        -0.4151   -1.0447   -1.1892 C.ar      1 PAZ         0.7348 
     14 N3         -1.3067   -2.0068   -0.8730 N.ar      1 PAZ        -0.8129 
     15 N4         -0.1931    0.0118   -0.2692 N.pl3     1 PAZ        -0.6753 
     16 C12        -0.3798   -0.3454    1.1426 C.3       1 PAZ         0.2106 
     17 C13         0.4077    1.2666   -0.5590 C.ar      1 PAZ         0.1460 
     18 C14         1.5870    1.6175    0.1342 C.ar      1 PAZ        -0.2289 
     19 C15         2.0987    2.8771   -0.2282 C.ar      1 PAZ         0.3735 
     20 N5          3.1862    3.5350    0.2111 N.pl3     1 PAZ        -0.5266 
     21 N6          3.1877    4.6915   -0.4799 N.pl3     1 PAZ         0.1500 
     22 C16         2.1531    4.8334   -1.3580 C.ar      1 PAZ        -0.1003 
     23 C17         1.4303    3.6821   -1.2225 C.ar      1 PAZ        -0.2201 
     24 C18         0.2718    3.3661   -1.9209 C.ar      1 PAZ        -0.0538 
     25 C19        -0.2175    2.1015   -1.5382 C.ar      1 PAZ        -0.1506 
     26 C20         1.9811    6.0279   -2.2064 C.3       1 PAZ        -0.0311 
     27 C21         4.2480    5.6440   -0.2407 C.3       1 PAZ         0.0270 
     28 S1         -5.1401   -2.0322    2.3609 S.o2      1 PAZ         1.5219 
     29 O1         -6.5843   -1.9722    2.1954 O.2       1 PAZ        -0.6587 
     30 O2         -4.5634   -2.0854    3.6957 O.2       1 PAZ        -0.6587 
     31 N7         -4.4300   -0.7359    1.5053 N.pl3     1 PAZ        -1.0249 
     32 H1         -6.0588   -4.0488    3.4418 H         1 PAZ         0.0577 
     33 H2         -5.2161   -5.6152    3.6928 H         1 PAZ         0.0577 
     34 H3         -6.6570   -5.5318    2.6235 H         1 PAZ         0.0577 
     35 H4         -3.4494   -2.1422    0.0745 H         1 PAZ         0.1592 
     36 H5         -3.1780   -6.3811   -0.6217 H         1 PAZ         0.1647 
     37 H6         -4.6398   -6.7992    1.3151 H         1 PAZ         0.1405 
     38 H7         -2.3859   -4.6895   -2.3572 H         1 PAZ         0.4556 
     39 H8          0.5726   -2.1325   -4.1888 H         1 PAZ         0.0262 
     40 H9          1.0141   -0.2418   -2.6085 H         1 PAZ         0.1643 
     41 H10        -0.1858    0.5354    1.7724 H         1 PAZ         0.0492 
     42 H11         0.3194   -1.1505    1.4127 H         1 PAZ         0.0492 
     43 H12        -1.4129   -0.6887    1.3004 H         1 PAZ         0.0492 
     44 H13         2.0524    0.9766    0.8724 H         1 PAZ         0.1521 
     45 H14        -0.2141    3.9853   -2.6618 H         1 PAZ         0.1346 
     46 H15        -1.1283    1.7449   -2.0210 H         1 PAZ         0.1435 
     47 H16         1.0802    5.9105   -2.8265 H         1 PAZ         0.0550 
     48 H17         2.8608    6.1458   -2.8563 H         1 PAZ         0.0550 
     49 H18         1.8741    6.9180   -1.5690 H         1 PAZ         0.0550 
     50 H19         4.1001    6.5259   -0.8814 H         1 PAZ         0.0651 
     51 H20         5.2175    5.1797   -0.4741 H         1 PAZ         0.0651 
     52 H21         4.2334    5.9514    0.8154 H         1 PAZ         0.0651 
     53 H22        -4.7221    0.2159    1.9730 H         1 PAZ         0.4460 
     54 H23        -4.7757   -0.7527    0.4612 H         1 PAZ         0.4460 
     55 H55         3.8316    3.0808    0.9773 H         1 PAZ         0.0000 
@<TRIPOS>BOND
     1    1    2 1    
     2    1   32 1    
     3    1   33 1    
     4    1   34 1    
     5    2    7 ar   
     6    2    3 ar   
     7    3    4 ar   
     8    3   28 1    
     9    4    5 ar   
    10    4   35 1    
    11    5    6 ar   
    12    5    8 1    
    13    6    7 ar   
    14    6   36 1    
    15    7   37 1    
    16    8    9 1    
    17    8   38 1    
    18    9   14 ar   
    19    9   10 ar   
    20   10   11 ar   
    21   11   12 ar   
    22   11   39 1    
    23   12   13 ar   
    24   12   40 1    
    25   13   14 ar   
    26   13   15 1    
    27   15   16 1    
    28   15   17 1    
    29   16   41 1    
    30   16   42 1    
    31   16   43 1    
    32   17   25 ar   
    33   17   18 ar   
    34   18   19 ar   
    35   18   44 1    
    36   19   23 ar   
    37   19   20 ar   
    38   20   21 1    
    39   20   55 1    
    40   21   22 ar   
    41   21   27 1    
    42   22   23 ar   
    43   22   26 1    
    44   23   24 ar   
    45   24   25 ar   
    46   24   45 1    
    47   25   46 1    
    48   26   47 1    
    49   26   48 1    
    50   26   49 1    
    51   27   50 1    
    52   27   51 1    
    53   27   52 1    
    54   28   29 2    
    55   28   30 2    
    56   28   31 1    
    57   31   53 1    
    58   31   54 1    
@<TRIPOS>SUBSTRUCTURE
     1 PAZ         1 GROUP             0       ****    0 ROOT    
@<TRIPOS>MOLECULE
5-[[4-[(2,3-dimethylindazol-6-yl)-methyl-amino]pyrimidin-2-yl]amino]-2-methyl-benzenesulfonamide
53   56    1
SMALL
USER_CHARGES


@<TRIPOS>ATOM
      1 C1         -5.7603   -4.9945    2.9658 C.3       1 PAZ        -0.0734 
      2 C2         -4.8761   -4.7061    1.7969 C.ar      1 PAZ         0.0254 
      3 C3         -4.5403   -3.3984    1.4463 C.ar      1 PAZ        -0.3573 
      4 C4         -3.7122   -3.1613    0.3491 C.ar      1 PAZ        -0.0858 
      5 C5         -3.2200   -4.2319   -0.3975 C.ar      1 PAZ         0.1399 
      6 C6         -3.5560   -5.5395   -0.0468 C.ar      1 PAZ        -0.0678 
      7 C7         -4.3840   -5.7766    1.0503 C.ar      1 PAZ        -0.1454 
      8 N1         -2.3835   -3.9928   -1.5060 N.pl3     1 PAZ        -0.7355 
      9 C8         -1.4572   -2.9696   -1.8025 C.ar      1 PAZ         0.9123 
     10 N2         -0.8196   -3.0596   -2.9852 N.ar      1 PAZ        -0.7691 
     11 C9          0.0569   -2.0652   -3.2367 C.ar      1 PAZ         0.4773 
     12 C10         0.3027   -1.0219   -2.3675 C.ar      1 PAZ        -0.4560 
     13 C11        -0.4151   -1.0447   -1.1892 C.ar      1 PAZ         0.7348 
     14 N3         -1.3067   -2.0068   -0.8730 N.ar      1 PAZ        -0.8129 
     15 N4         -0.1931    0.0118   -0.2692 N.pl3     1 PAZ        -0.6753 
     16 C12        -0.3798   -0.3454    1.1426 C.3       1 PAZ         0.2106 
     17 C13         0.4077    1.2666   -0.5590 C.ar      1 PAZ         0.1460 
     18 C14         1.5870    1.6175    0.1342 C.ar      1 PAZ        -0.2289 
     19 C15         2.0987    2.8771   -0.2282 C.ar      1 PAZ         0.3735 
     20 N5          3.1862    3.5350    0.2111 N.2       1 PAZ        -0.5266 
     21 N6          3.1877    4.6915   -0.4799 N.pl3     1 PAZ         0.1500 
     22 C16         2.1531    4.8334   -1.3580 C.ar      1 PAZ        -0.1003 
     23 C17         1.4303    3.6821   -1.2225 C.ar      1 PAZ        -0.2201 
     24 C18         0.2718    3.3661   -1.9209 C.ar      1 PAZ        -0.0538 
     25 C19        -0.2175    2.1015   -1.5382 C.ar      1 PAZ        -0.1506 
     26 C20         1.9811    6.0279   -2.2064 C.3       1 PAZ        -0.0311 
     27 C21         4.2480    5.6440   -0.2407 C.3       1 PAZ         0.0270 
     28 S1         -5.1401   -2.0322    2.3609 S.o2      1 PAZ         1.5219 
     29 O1         -6.5843   -1.9722    2.1954 O.2       1 PAZ        -0.6587 
     30 O2         -4.5634   -2.0854    3.6957 O.2       1 PAZ        -0.6587 
     31 N7         -4.4300   -0.7359    1.5053 N.2       1 PAZ        -1.0249 
     32 H1         -6.0588   -4.0488    3.4418 H         1 PAZ         0.0577 
     33 H2         -5.2161   -5.6152    3.6928 H         1 PAZ         0.0577 
     34 H3         -6.6570   -5.5318    2.6235 H         1 PAZ         0.0577 
     35 H4         -3.4494   -2.1422    0.0745 H         1 PAZ         0.1592 
     36 H5         -3.1780   -6.3811   -0.6217 H         1 PAZ         0.1647 
     37 H6         -4.6398   -6.7992    1.3151 H         1 PAZ         0.1405 
     38 H7         -2.3859   -4.6895   -2.3572 H         1 PAZ         0.4556 
     39 H8          0.5726   -2.1325   -4.1888 H         1 PAZ         0.0262 
     40 H9          1.0141   -0.2418   -2.6085 H         1 PAZ         0.1643 
     41 H10        -0.1858    0.5354    1.7724 H         1 PAZ         0.0492 
     42 H11         0.3194   -1.1505    1.4127 H         1 PAZ         0.0492 
     43 H12        -1.4129   -0.6887    1.3004 H         1 PAZ         0.0492 
     44 H13         2.0524    0.9766    0.8724 H         1 PAZ         0.1521 
     45 H14        -0.2141    3.9853   -2.6618 H         1 PAZ         0.1346 
     46 H15        -1.1283    1.7449   -2.0210 H         1 PAZ         0.1435 
     47 H16         1.0802    5.9105   -2.8265 H         1 PAZ         0.0550 
     48 H17         2.8608    6.1458   -2.8563 H         1 PAZ         0.0550 
     49 H18         1.8741    6.9180   -1.5690 H         1 PAZ         0.0550 
     50 H19         4.1001    6.5259   -0.8814 H         1 PAZ         0.0651 
     51 H20         5.2175    5.1797   -0.4741 H         1 PAZ         0.0651 
     52 H21         4.2334    5.9514    0.8154 H         1 PAZ         0.0651 
     53 H23        -4.6097    0.3002    1.8281 H         1 PAZ         0.4460 
@<TRIPOS>BOND
     1    1    2 1    
     2    1   32 1    
     3    1   33 1    
     4    1   34 1    
     5    2    7 ar   
     6    2    3 ar   
     7    3    4 ar   
     8    3   28 1    
     9    4    5 ar   
    10    4   35 1    
    11    5    6 ar   
    12    5    8 1    
    13    6    7 ar   
    14    6   36 1    
    15    7   37 1    
    16    8    9 1    
    17    8   38 1    
    18    9   14 ar   
    19    9   10 ar   
    20   10   11 ar   
    21   11   12 ar   
    22   11   39 1    
    23   12   13 ar   
    24   12   40 1    
    25   13   14 ar   
    26   13   15 1    
    27   15   16 1    
    28   15   17 1    
    29   16   41 1    
    30   16   42 1    
    31   16   43 1    
    32   17   25 ar   
    33   17   18 ar   
    34   18   19 ar   
    35   18   44 1    
    36   19   23 ar   
    37   19   20 ar   
    38   20   21 ar   
    39   21   22 ar   
    40   21   27 1    
    41   22   23 ar   
    42   22   26 1    
    43   23   24 ar   
    44   24   25 ar   
    45   24   45 1    
    46   25   46 1    
    47   26   47 1    
    48   26   48 1    
    49   26   49 1    
    50   27   50 1    
    51   27   51 1    
    52   27   52 1    
    53   28   29 2    
    54   28   30 2    
    55   28   31 1    
    56   31   53 1    
@<TRIPOS>SUBSTRUCTURE
     1 PAZ         1 GROUP             0       ****    0 ROOT    
@<TRIPOS>MOLECULE
5-[[4-[(2,3-dimethylindazol-6-yl)-methyl-amino]pyrimidin-2-yl]amino]-2-methyl-benzenesulfonamide
56   59    1
SMALL
USER_CHARGES


@<TRIPOS>ATOM
      1 C1         -5.7509   -5.0014    2.9714 C.3       1 PAZ        -0.0734 
      2 C2         -4.8684   -4.7117    1.8015 C.ar      1 PAZ         0.0254 
      3 C3         -4.5345   -3.4035    1.4508 C.ar      1 PAZ        -0.3573 
      4 C4         -3.7080   -3.1653    0.3526 C.ar      1 PAZ        -0.0858 
      5 C5         -3.2156   -4.2351   -0.3949 C.ar      1 PAZ         0.1399 
      6 C6         -3.5497   -5.5432   -0.0441 C.ar      1 PAZ        -0.0678 
      7 C7         -4.3761   -5.7815    1.0540 C.ar      1 PAZ        -0.1454 
      8 N1         -2.3807   -3.9948   -1.5043 N.pl3     1 PAZ        -0.7355 
      9 C8         -1.4559   -2.9706   -1.8017 C.ar      1 PAZ         0.9123 
     10 N2         -0.8185   -3.0604   -2.9845 N.pl3     1 PAZ        -0.7691 
     11 C9          0.0579   -2.0660   -3.2361 C.ar      1 PAZ         0.4773 
     12 C10         0.3053   -1.0238   -2.3659 C.ar      1 PAZ        -0.4560 
     13 C11        -0.4151   -1.0447   -1.1892 C.ar      1 PAZ         0.7348 
     14 N3         -1.3053   -2.0078   -0.8721 N.2       1 PAZ        -0.8129 
     15 N4         -0.1931    0.0118   -0.2692 N.pl3     1 PAZ        -0.6753 
     16 C12        -0.3798   -0.3454    1.1426 C.3       1 PAZ         0.2106 
     17 C13         0.1828    1.3435   -0.5930 C.ar      1 PAZ         0.1460 
     18 C14         1.3995    1.8381   -0.0738 C.ar      1 PAZ        -0.2289 
     19 C15         1.6762    3.1638   -0.4555 C.ar      1 PAZ         0.3735 
     20 N5          2.7223    3.9554   -0.1597 N.pl3     1 PAZ        -0.5266 
     21 N6          2.4617    5.1160   -0.7922 N.pl3     1 PAZ         0.1500 
     22 C16         1.2922    5.1333   -1.4947 C.ar      1 PAZ        -0.1003 
     23 C17         0.7588    3.8908   -1.3001 C.ar      1 PAZ        -0.2201 
     24 C18        -0.4429    3.4337   -1.8261 C.ar      1 PAZ        -0.0538 
     25 C19        -0.6938    2.1056   -1.4280 C.ar      1 PAZ        -0.1506 
     26 C20         0.8319    6.3111   -2.2544 C.3       1 PAZ        -0.0311 
     27 C21         3.4106    6.1999   -0.6770 C.3       1 PAZ         0.0270 
     28 S1         -5.1346   -2.0382    2.3665 S.o2      1 PAZ         1.5219 
     29 O1         -6.5791   -1.9798    2.2028 O.2       1 PAZ        -0.6587 
     30 O2         -4.5562   -2.0912    3.7006 O.2       1 PAZ        -0.6587 
     31 N7         -4.4270   -0.7409    1.5104 N.pl3     1 PAZ        -1.0249 
     32 H1         -6.0498   -4.0562    3.4481 H         1 PAZ         0.0577 
     33 H2         -5.2051   -5.6217    3.6976 H         1 PAZ         0.0577 
     34 H3         -6.6474   -5.5395    2.6300 H         1 PAZ         0.0577 
     35 H4         -3.4466   -2.1458    0.0780 H         1 PAZ         0.1592 
     36 H5         -3.1715   -6.3842   -0.6197 H         1 PAZ         0.1647 
     37 H6         -4.6305   -6.8044    1.3188 H         1 PAZ         0.1405 
     38 H7         -1.0308   -3.9012   -3.6612 H         1 PAZ         0.4556 
     39 H8          0.5411   -2.1128   -4.1104 H         1 PAZ         0.0262 
     40 H9          0.9710   -0.3178   -2.6078 H         1 PAZ         0.1643 
     41 H10        -0.1858    0.5354    1.7724 H         1 PAZ         0.0492 
     42 H11         0.3194   -1.1505    1.4127 H         1 PAZ         0.0492 
     43 H12        -1.4129   -0.6887    1.3004 H         1 PAZ         0.0492 
     44 H13         1.9705    1.2548    0.5039 H         1 PAZ         0.1521 
     45 H14        -1.0978    3.9127   -2.4106 H         1 PAZ         0.1346 
     46 H15        -1.5265    1.6418   -1.7306 H         1 PAZ         0.1435 
     47 H16        -0.1318    6.0845   -2.7339 H         1 PAZ         0.0550 
     48 H17         1.5748    6.5633   -3.0254 H         1 PAZ         0.0550 
     49 H18         0.7096    7.1638   -1.5703 H         1 PAZ         0.0550 
     50 H19         3.0481    7.0669   -1.2488 H         1 PAZ         0.0651 
     51 H20         4.3842    5.8788   -1.0758 H         1 PAZ         0.0651 
     52 H21         3.5218    6.4790    0.3811 H         1 PAZ         0.0651 
     53 H22        -4.7195    0.2104    1.9787 H         1 PAZ         0.4460 
     54 H23        -4.7740   -0.7578    0.4667 H         1 PAZ         0.4460 
     55 H55        -2.5487   -4.8100   -2.2235 H         1 PAZ         0.0000 
     56 H56         3.5348    3.5776    0.4785 H         1 PAZ         0.0000 
@<TRIPOS>BOND
     1    1    2 1    
     2    1   32 1    
     3    1   33 1    
     4    1   34 1    
     5    2    7 ar   
     6    2    3 ar   
     7    3    4 ar   
     8    3   28 1    
     9    4    5 ar   
    10    4   35 1    
    11    5    6 ar   
    12    5    8 1    
    13    6    7 ar   
    14    6   36 1    
    15    7   37 1    
    16    8    9 1    
    17    8   55 1    
    18    9   14 ar   
    19    9   10 ar   
    20   10   38 1    
    21   10   11 ar   
    22   11   12 ar   
    23   11   39 1    
    24   12   40 1    
    25   12   13 ar   
    26   13   15 2    
    27   13   14 ar   
    28   15   16 1    
    29   15   17 1    
    30   16   41 1    
    31   16   42 1    
    32   16   43 1    
    33   17   25 ar   
    34   17   18 ar   
    35   18   19 ar   
    36   18   44 1    
    37   19   23 ar   
    38   19   20 ar   
    39   20   21 1    
    40   20   56 1    
    41   21   22 ar   
    42   21   27 1    
    43   22   23 ar   
    44   22   26 1    
    45   23   24 ar   
    46   24   25 ar   
    47   24   45 1    
    48   25   46 1    
    49   26   47 1    
    50   26   48 1    
    51   26   49 1    
    52   27   50 1    
    53   27   51 1    
    54   27   52 1    
    55   28   29 2    
    56   28   30 2    
    57   28   31 1    
    58   31   53 1    
    59   31   54 1    
@<TRIPOS>SUBSTRUCTURE
     1 PAZ         1 GROUP             0       ****    0 ROOT    
@<TRIPOS>MOLECULE
5-[[4-[(2,3-dimethylindazol-6-yl)-methyl-amino]pyrimidin-2-yl]amino]-2-methyl-benzenesulfonamide
56   59    1
SMALL
USER_CHARGES


@<TRIPOS>ATOM
      1 C1         -5.7509   -5.0014    2.9714 C.3       1 PAZ        -0.0734 
      2 C2         -4.8684   -4.7117    1.8015 C.ar      1 PAZ         0.0254 
      3 C3         -4.5345   -3.4035    1.4508 C.ar      1 PAZ        -0.3573 
      4 C4         -3.7080   -3.1653    0.3526 C.ar      1 PAZ        -0.0858 
      5 C5         -3.2156   -4.2351   -0.3949 C.ar      1 PAZ         0.1399 
      6 C6         -3.5497   -5.5432   -0.0441 C.ar      1 PAZ        -0.0678 
      7 C7         -4.3761   -5.7815    1.0540 C.ar      1 PAZ        -0.1454 
      8 N1         -2.3807   -3.9948   -1.5043 N.pl3     1 PAZ        -0.7355 
      9 C8         -1.4559   -2.9706   -1.8017 C.ar      1 PAZ         0.9123 
     10 N2         -0.8185   -3.0604   -2.9845 N.pl3     1 PAZ        -0.7691 
     11 C9          0.0579   -2.0660   -3.2361 C.ar      1 PAZ         0.4773 
     12 C10         0.3053   -1.0238   -2.3659 C.ar      1 PAZ        -0.4560 
     13 C11        -0.4151   -1.0447   -1.1892 C.ar      1 PAZ         0.7348 
     14 N3         -1.3053   -2.0078   -0.8721 N.2       1 PAZ        -0.8129 
     15 N4         -0.1931    0.0118   -0.2692 N.pl3     1 PAZ        -0.6753 
     16 C12         0.1878    1.2933   -0.8762 C.3       1 PAZ         0.2106 
     17 C13        -0.3059   -0.0675    1.1452 C.ar      1 PAZ         0.1460 
     18 C14        -1.2422    0.7721    1.7878 C.ar      1 PAZ        -0.2289 
     19 C15        -1.2737    0.6131    3.1855 C.ar      1 PAZ         0.3735 
     20 N5         -2.0240    1.2296    4.1158 N.pl3     1 PAZ        -0.5266 
     21 N6         -1.6339    0.6849    5.2846 N.pl3     1 PAZ         0.1500 
     22 C16        -0.6603   -0.2647    5.1754 C.ar      1 PAZ        -0.1003 
     23 C17        -0.4033   -0.3372    3.8356 C.ar      1 PAZ        -0.2201 
     24 C18         0.5262   -1.1757    3.2334 C.ar      1 PAZ        -0.0538 
     25 C19         0.5360   -0.9952    1.8361 C.ar      1 PAZ        -0.1506 
     26 C20        -0.1022   -0.9769    6.3405 C.3       1 PAZ        -0.0311 
     27 C21        -2.2603    1.1362    6.5064 C.3       1 PAZ         0.0270 
     28 S1         -5.1346   -2.0382    2.3665 S.o2      1 PAZ         1.5219 
     29 O1         -6.5791   -1.9798    2.2028 O.2       1 PAZ        -0.6587 
     30 O2         -4.5562   -2.0912    3.7006 O.2       1 PAZ        -0.6587 
     31 N7         -4.4270   -0.7409    1.5104 N.pl3     1 PAZ        -1.0249 
     32 H1         -6.0498   -4.0562    3.4481 H         1 PAZ         0.0577 
     33 H2         -5.2051   -5.6217    3.6976 H         1 PAZ         0.0577 
     34 H3         -6.6474   -5.5395    2.6300 H         1 PAZ         0.0577 
     35 H4         -3.4466   -2.1458    0.0780 H         1 PAZ         0.1592 
     36 H5         -3.1715   -6.3842   -0.6197 H         1 PAZ         0.1647 
     37 H6         -4.6305   -6.8044    1.3188 H         1 PAZ         0.1405 
     38 H7         -1.0308   -3.9012   -3.6612 H         1 PAZ         0.4556 
     39 H8          0.5411   -2.1128   -4.1104 H         1 PAZ         0.0262 
     40 H9          0.9710   -0.3178   -2.6078 H         1 PAZ         0.1643 
     41 H10         0.3366    2.0435   -0.0856 H         1 PAZ         0.0492 
     42 H11        -0.6100    1.6290   -1.5549 H         1 PAZ         0.0492 
     43 H12         1.1223    1.1673   -1.4426 H         1 PAZ         0.0492 
     44 H13        -1.8039    1.3995    1.2485 H         1 PAZ         0.1521 
     45 H14         1.1420   -1.8407    3.6559 H         1 PAZ         0.1346 
     46 H15         1.1583   -1.5325    1.2668 H         1 PAZ         0.1435 
     47 H16         0.6641   -1.6898    6.0018 H         1 PAZ         0.0550 
     48 H17        -0.9064   -1.5211    6.8572 H         1 PAZ         0.0550 
     49 H18         0.3518   -0.2510    7.0310 H         1 PAZ         0.0550 
     50 H19        -1.8295    0.5942    7.3612 H         1 PAZ         0.0651 
     51 H20        -3.3420    0.9427    6.4570 H         1 PAZ         0.0651 
     52 H21        -2.0861    2.2152    6.6308 H         1 PAZ         0.0651 
     53 H22        -4.7195    0.2104    1.9787 H         1 PAZ         0.4460 
     54 H23        -4.7740   -0.7578    0.4667 H         1 PAZ         0.4460 
     55 H55        -2.5487   -4.8100   -2.2235 H         1 PAZ         0.0000 
     56 H56        -2.7551    1.9942    3.8145 H         1 PAZ         0.0000 
@<TRIPOS>BOND
     1    1    2 1    
     2    1   32 1    
     3    1   33 1    
     4    1   34 1    
     5    2    7 ar   
     6    2    3 ar   
     7    3    4 ar   
     8    3   28 1    
     9    4    5 ar   
    10    4   35 1    
    11    5    6 ar   
    12    5    8 1    
    13    6    7 ar   
    14    6   36 1    
    15    7   37 1    
    16    8    9 1    
    17    8   55 1    
    18    9   14 ar   
    19    9   10 ar   
    20   10   38 1    
    21   10   11 ar   
    22   11   12 ar   
    23   11   39 1    
    24   12   40 1    
    25   12   13 ar   
    26   13   15 2    
    27   13   14 ar   
    28   15   16 1    
    29   15   17 1    
    30   16   41 1    
    31   16   42 1    
    32   16   43 1    
    33   17   25 ar   
    34   17   18 ar   
    35   18   19 ar   
    36   18   44 1    
    37   19   23 ar   
    38   19   20 ar   
    39   20   21 1    
    40   20   56 1    
    41   21   22 ar   
    42   21   27 1    
    43   22   23 ar   
    44   22   26 1    
    45   23   24 ar   
    46   24   25 ar   
    47   24   45 1    
    48   25   46 1    
    49   26   47 1    
    50   26   48 1    
    51   26   49 1    
    52   27   50 1    
    53   27   51 1    
    54   27   52 1    
    55   28   29 2    
    56   28   30 2    
    57   28   31 1    
    58   31   53 1    
    59   31   54 1    
@<TRIPOS>SUBSTRUCTURE
     1 PAZ         1 GROUP             0       ****    0 ROOT    
@<TRIPOS>MOLECULE
5-[[4-[(2,3-dimethylindazol-6-yl)-methyl-amino]pyrimidin-2-yl]amino]-2-methyl-benzenesulfonamide
56   59    1
SMALL
USER_CHARGES


@<TRIPOS>ATOM
      1 C1         -5.7603   -4.9945    2.9658 C.3       1 PAZ        -0.0734 
      2 C2         -4.8761   -4.7061    1.7969 C.ar      1 PAZ         0.0254 
      3 C3         -4.5403   -3.3984    1.4463 C.ar      1 PAZ        -0.3573 
      4 C4         -3.7122   -3.1613    0.3491 C.ar      1 PAZ        -0.0858 
      5 C5         -3.2200   -4.2319   -0.3975 C.ar      1 PAZ         0.1399 
      6 C6         -3.5560   -5.5395   -0.0468 C.ar      1 PAZ        -0.0678 
      7 C7         -4.3840   -5.7766    1.0503 C.ar      1 PAZ        -0.1454 
      8 N1         -2.3835   -3.9928   -1.5060 N.pl3     1 PAZ        -0.7355 
      9 C8         -1.4572   -2.9696   -1.8025 C.ar      1 PAZ         0.9123 
     10 N2         -0.8196   -3.0596   -2.9852 N.pl3     1 PAZ        -0.7691 
     11 C9          0.0569   -2.0652   -3.2367 C.ar      1 PAZ         0.4773 
     12 C10         0.3027   -1.0219   -2.3675 C.ar      1 PAZ        -0.4560 
     13 C11        -0.4151   -1.0447   -1.1892 C.ar      1 PAZ         0.7348 
     14 N3         -1.3067   -2.0068   -0.8730 N.ar      1 PAZ        -0.8129 
     15 N4         -0.1931    0.0118   -0.2692 N.pl3     1 PAZ        -0.6753 
     16 C12        -0.3798   -0.3454    1.1426 C.3       1 PAZ         0.2106 
     17 C13         0.4077    1.2666   -0.5590 C.ar      1 PAZ         0.1460 
     18 C14         1.5870    1.6175    0.1342 C.ar      1 PAZ        -0.2289 
     19 C15         2.0987    2.8771   -0.2282 C.ar      1 PAZ         0.3735 
     20 N5          3.1862    3.5350    0.2111 N.pl3     1 PAZ        -0.5266 
     21 N6          3.1877    4.6915   -0.4799 N.pl3     1 PAZ         0.1500 
     22 C16         2.1531    4.8334   -1.3580 C.ar      1 PAZ        -0.1003 
     23 C17         1.4303    3.6821   -1.2225 C.ar      1 PAZ        -0.2201 
     24 C18         0.2718    3.3661   -1.9209 C.ar      1 PAZ        -0.0538 
     25 C19        -0.2175    2.1015   -1.5382 C.ar      1 PAZ        -0.1506 
     26 C20         1.9811    6.0279   -2.2064 C.3       1 PAZ        -0.0311 
     27 C21         4.2480    5.6440   -0.2407 C.3       1 PAZ         0.0270 
     28 S1         -5.1401   -2.0322    2.3609 S.o2      1 PAZ         1.5219 
     29 O1         -6.5843   -1.9722    2.1954 O.2       1 PAZ        -0.6587 
     30 O2         -4.5634   -2.0854    3.6957 O.2       1 PAZ        -0.6587 
     31 N7         -4.4300   -0.7359    1.5053 N.pl3     1 PAZ        -1.0249 
     32 H1         -6.0588   -4.0488    3.4418 H         1 PAZ         0.0577 
     33 H2         -5.2161   -5.6152    3.6928 H         1 PAZ         0.0577 
     34 H3         -6.6570   -5.5318    2.6235 H         1 PAZ         0.0577 
     35 H4         -3.4494   -2.1422    0.0745 H         1 PAZ         0.1592 
     36 H5         -3.1780   -6.3811   -0.6217 H         1 PAZ         0.1647 
     37 H6         -4.6398   -6.7992    1.3151 H         1 PAZ         0.1405 
     38 H7         -2.3859   -4.6895   -2.3572 H         1 PAZ         0.4556 
     39 H8          0.5726   -2.1325   -4.1888 H         1 PAZ         0.0262 
     40 H9          1.0141   -0.2418   -2.6085 H         1 PAZ         0.1643 
     41 H10        -0.1858    0.5354    1.7724 H         1 PAZ         0.0492 
     42 H11         0.3194   -1.1505    1.4127 H         1 PAZ         0.0492 
     43 H12        -1.4129   -0.6887    1.3004 H         1 PAZ         0.0492 
     44 H13         2.0524    0.9766    0.8724 H         1 PAZ         0.1521 
     45 H14        -0.2141    3.9853   -2.6618 H         1 PAZ         0.1346 
     46 H15        -1.1283    1.7449   -2.0210 H         1 PAZ         0.1435 
     47 H16         1.0802    5.9105   -2.8265 H         1 PAZ         0.0550 
     48 H17         2.8608    6.1458   -2.8563 H         1 PAZ         0.0550 
     49 H18         1.8741    6.9180   -1.5690 H         1 PAZ         0.0550 
     50 H19         4.1001    6.5259   -0.8814 H         1 PAZ         0.0651 
     51 H20         5.2175    5.1797   -0.4741 H         1 PAZ         0.0651 
     52 H21         4.2334    5.9514    0.8154 H         1 PAZ         0.0651 
     53 H22        -4.7221    0.2159    1.9730 H         1 PAZ         0.4460 
     54 H23        -4.7757   -0.7527    0.4612 H         1 PAZ         0.4460 
     55 H55        -1.0319   -3.9005   -3.6619 H         1 PAZ         0.0000 
     56 H56         3.8316    3.0808    0.9773 H         1 PAZ         0.0000 
@<TRIPOS>BOND
     1    1    2 1    
     2    1   32 1    
     3    1   33 1    
     4    1   34 1    
     5    2    7 ar   
     6    2    3 ar   
     7    3    4 ar   
     8    3   28 1    
     9    4    5 ar   
    10    4   35 1    
    11    5    6 ar   
    12    5    8 1    
    13    6    7 ar   
    14    6   36 1    
    15    7   37 1    
    16    8    9 1    
    17    8   38 1    
    18    9   14 ar   
    19    9   10 ar   
    20   10   11 ar   
    21   10   55 1    
    22   11   12 ar   
    23   11   39 1    
    24   12   13 ar   
    25   12   40 1    
    26   13   14 ar   
    27   13   15 1    
    28   15   16 1    
    29   15   17 1    
    30   16   41 1    
    31   16   42 1    
    32   16   43 1    
    33   17   25 ar   
    34   17   18 ar   
    35   18   19 ar   
    36   18   44 1    
    37   19   23 ar   
    38   19   20 ar   
    39   20   21 1    
    40   20   56 1    
    41   21   22 ar   
    42   21   27 1    
    43   22   23 ar   
    44   22   26 1    
    45   23   24 ar   
    46   24   25 ar   
    47   24   45 1    
    48   25   46 1    
    49   26   47 1    
    50   26   48 1    
    51   26   49 1    
    52   27   50 1    
    53   27   51 1    
    54   27   52 1    
    55   28   29 2    
    56   28   30 2    
    57   28   31 1    
    58   31   53 1    
    59   31   54 1    
@<TRIPOS>SUBSTRUCTURE
     1 PAZ         1 GROUP             0       ****    0 ROOT    
@<TRIPOS>MOLECULE
5-[[4-[(2,3-dimethylindazol-6-yl)-methyl-amino]pyrimidin-2-yl]amino]-2-methyl-benzenesulfonamide
54   57    1
SMALL
USER_CHARGES


@<TRIPOS>ATOM
      1 C1         -5.7509   -5.0014    2.9714 C.3       1 PAZ        -0.0734 
      2 C2         -4.8684   -4.7117    1.8015 C.ar      1 PAZ         0.0254 
      3 C3         -4.5345   -3.4035    1.4508 C.ar      1 PAZ        -0.3573 
      4 C4         -3.7080   -3.1653    0.3526 C.ar      1 PAZ        -0.0858 
      5 C5         -3.2156   -4.2351   -0.3949 C.ar      1 PAZ         0.1399 
      6 C6         -3.5497   -5.5432   -0.0441 C.ar      1 PAZ        -0.0678 
      7 C7         -4.3761   -5.7815    1.0540 C.ar      1 PAZ        -0.1454 
      8 N1         -2.3807   -3.9948   -1.5043 N.pl3     1 PAZ        -0.7355 
      9 C8         -1.4559   -2.9706   -1.8017 C.ar      1 PAZ         0.9123 
     10 N2         -0.8185   -3.0604   -2.9845 N.pl3     1 PAZ        -0.7691 
     11 C9          0.0579   -2.0660   -3.2361 C.ar      1 PAZ         0.4773 
     12 C10         0.3053   -1.0238   -2.3659 C.ar      1 PAZ        -0.4560 
     13 C11        -0.4151   -1.0447   -1.1892 C.ar      1 PAZ         0.7348 
     14 N3         -1.3053   -2.0078   -0.8721 N.2       1 PAZ        -0.8129 
     15 N4         -0.1931    0.0118   -0.2692 N.pl3     1 PAZ        -0.6753 
     16 C12        -0.3798   -0.3454    1.1426 C.3       1 PAZ         0.2106 
     17 C13         0.1828    1.3435   -0.5930 C.ar      1 PAZ         0.1460 
     18 C14         1.3995    1.8381   -0.0738 C.ar      1 PAZ        -0.2289 
     19 C15         1.6762    3.1638   -0.4555 C.ar      1 PAZ         0.3735 
     20 N5          2.7223    3.9554   -0.1597 N.2       1 PAZ        -0.5266 
     21 N6          2.4617    5.1160   -0.7922 N.pl3     1 PAZ         0.1500 
     22 C16         1.2922    5.1333   -1.4947 C.ar      1 PAZ        -0.1003 
     23 C17         0.7588    3.8908   -1.3001 C.ar      1 PAZ        -0.2201 
     24 C18        -0.4429    3.4337   -1.8261 C.ar      1 PAZ        -0.0538 
     25 C19        -0.6938    2.1056   -1.4280 C.ar      1 PAZ        -0.1506 
     26 C20         0.8319    6.3111   -2.2544 C.3       1 PAZ        -0.0311 
     27 C21         3.4106    6.1999   -0.6770 C.3       1 PAZ         0.0270 
     28 S1         -5.1346   -2.0382    2.3665 S.o2      1 PAZ         1.5219 
     29 O1         -6.5791   -1.9798    2.2028 O.2       1 PAZ        -0.6587 
     30 O2         -4.5562   -2.0912    3.7006 O.2       1 PAZ        -0.6587 
     31 N7         -4.4270   -0.7409    1.5104 N.2       1 PAZ        -1.0249 
     32 H1         -6.0498   -4.0562    3.4481 H         1 PAZ         0.0577 
     33 H2         -5.2051   -5.6217    3.6976 H         1 PAZ         0.0577 
     34 H3         -6.6474   -5.5395    2.6300 H         1 PAZ         0.0577 
     35 H4         -3.4466   -2.1458    0.0780 H         1 PAZ         0.1592 
     36 H5         -3.1715   -6.3842   -0.6197 H         1 PAZ         0.1647 
     37 H6         -4.6305   -6.8044    1.3188 H         1 PAZ         0.1405 
     38 H7         -1.0308   -3.9012   -3.6612 H         1 PAZ         0.4556 
     39 H8          0.5411   -2.1128   -4.1104 H         1 PAZ         0.0262 
     40 H9          0.9710   -0.3178   -2.6078 H         1 PAZ         0.1643 
     41 H10        -0.1858    0.5354    1.7724 H         1 PAZ         0.0492 
     42 H11         0.3194   -1.1505    1.4127 H         1 PAZ         0.0492 
     43 H12        -1.4129   -0.6887    1.3004 H         1 PAZ         0.0492 
     44 H13         1.9705    1.2548    0.5039 H         1 PAZ         0.1521 
     45 H14        -1.0978    3.9127   -2.4106 H         1 PAZ         0.1346 
     46 H15        -1.5265    1.6418   -1.7306 H         1 PAZ         0.1435 
     47 H16        -0.1318    6.0845   -2.7339 H         1 PAZ         0.0550 
     48 H17         1.5748    6.5633   -3.0254 H         1 PAZ         0.0550 
     49 H18         0.7096    7.1638   -1.5703 H         1 PAZ         0.0550 
     50 H19         3.0481    7.0669   -1.2488 H         1 PAZ         0.0651 
     51 H20         4.3842    5.8788   -1.0758 H         1 PAZ         0.0651 
     52 H21         3.5218    6.4790    0.3811 H         1 PAZ         0.0651 
     53 H23        -4.6074    0.2949    1.8337 H         1 PAZ         0.4460 
     54 H54        -2.5487   -4.8100   -2.2235 H         1 PAZ         0.0000 
@<TRIPOS>BOND
     1    1    2 1    
     2    1   32 1    
     3    1   33 1    
     4    1   34 1    
     5    2    7 ar   
     6    2    3 ar   
     7    3    4 ar   
     8    3   28 1    
     9    4    5 ar   
    10    4   35 1    
    11    5    6 ar   
    12    5    8 1    
    13    6    7 ar   
    14    6   36 1    
    15    7   37 1    
    16    8    9 1    
    17    8   54 1    
    18    9   14 ar   
    19    9   10 ar   
    20   10   38 1    
    21   10   11 ar   
    22   11   12 ar   
    23   11   39 1    
    24   12   40 1    
    25   12   13 ar   
    26   13   15 2    
    27   13   14 ar   
    28   15   16 1    
    29   15   17 1    
    30   16   41 1    
    31   16   42 1    
    32   16   43 1    
    33   17   25 ar   
    34   17   18 ar   
    35   18   19 ar   
    36   18   44 1    
    37   19   23 ar   
    38   19   20 ar   
    39   20   21 ar   
    40   21   22 ar   
    41   21   27 1    
    42   22   23 ar   
    43   22   26 1    
    44   23   24 ar   
    45   24   25 ar   
    46   24   45 1    
    47   25   46 1    
    48   26   47 1    
    49   26   48 1    
    50   26   49 1    
    51   27   50 1    
    52   27   51 1    
    53   27   52 1    
    54   28   29 2    
    55   28   30 2    
    56   28   31 1    
    57   31   53 1    
@<TRIPOS>SUBSTRUCTURE
     1 PAZ         1 GROUP             0       ****    0 ROOT    
@<TRIPOS>MOLECULE
5-[[4-[(2,3-dimethylindazol-6-yl)-methyl-amino]pyrimidin-2-yl]amino]-2-methyl-benzenesulfonamide
54   57    1
SMALL
USER_CHARGES


@<TRIPOS>ATOM
      1 C1         -5.7509   -5.0014    2.9714 C.3       1 PAZ        -0.0734 
      2 C2         -4.8684   -4.7117    1.8015 C.ar      1 PAZ         0.0254 
      3 C3         -4.5345   -3.4035    1.4508 C.ar      1 PAZ        -0.3573 
      4 C4         -3.7080   -3.1653    0.3526 C.ar      1 PAZ        -0.0858 
      5 C5         -3.2156   -4.2351   -0.3949 C.ar      1 PAZ         0.1399 
      6 C6         -3.5497   -5.5432   -0.0441 C.ar      1 PAZ        -0.0678 
      7 C7         -4.3761   -5.7815    1.0540 C.ar      1 PAZ        -0.1454 
      8 N1         -2.3807   -3.9948   -1.5043 N.pl3     1 PAZ        -0.7355 
      9 C8         -1.4559   -2.9706   -1.8017 C.ar      1 PAZ         0.9123 
     10 N2         -0.8185   -3.0604   -2.9845 N.pl3     1 PAZ        -0.7691 
     11 C9          0.0579   -2.0660   -3.2361 C.ar      1 PAZ         0.4773 
     12 C10         0.3053   -1.0238   -2.3659 C.ar      1 PAZ        -0.4560 
     13 C11        -0.4151   -1.0447   -1.1892 C.ar      1 PAZ         0.7348 
     14 N3         -1.3053   -2.0078   -0.8721 N.2       1 PAZ        -0.8129 
     15 N4         -0.1931    0.0118   -0.2692 N.pl3     1 PAZ        -0.6753 
     16 C12         0.1878    1.2933   -0.8762 C.3       1 PAZ         0.2106 
     17 C13        -0.3059   -0.0675    1.1452 C.ar      1 PAZ         0.1460 
     18 C14        -1.2422    0.7721    1.7878 C.ar      1 PAZ        -0.2289 
     19 C15        -1.2737    0.6131    3.1855 C.ar      1 PAZ         0.3735 
     20 N5         -2.0240    1.2296    4.1158 N.2       1 PAZ        -0.5266 
     21 N6         -1.6339    0.6849    5.2846 N.pl3     1 PAZ         0.1500 
     22 C16        -0.6603   -0.2647    5.1754 C.ar      1 PAZ        -0.1003 
     23 C17        -0.4033   -0.3372    3.8356 C.ar      1 PAZ        -0.2201 
     24 C18         0.5262   -1.1757    3.2334 C.ar      1 PAZ        -0.0538 
     25 C19         0.5360   -0.9952    1.8361 C.ar      1 PAZ        -0.1506 
     26 C20        -0.1022   -0.9769    6.3405 C.3       1 PAZ        -0.0311 
     27 C21        -2.2603    1.1362    6.5064 C.3       1 PAZ         0.0270 
     28 S1         -5.1346   -2.0382    2.3665 S.o2      1 PAZ         1.5219 
     29 O1         -6.5791   -1.9798    2.2028 O.2       1 PAZ        -0.6587 
     30 O2         -4.5562   -2.0912    3.7006 O.2       1 PAZ        -0.6587 
     31 N7         -4.4270   -0.7409    1.5104 N.2       1 PAZ        -1.0249 
     32 H1         -6.0498   -4.0562    3.4481 H         1 PAZ         0.0577 
     33 H2         -5.2051   -5.6217    3.6976 H         1 PAZ         0.0577 
     34 H3         -6.6474   -5.5395    2.6300 H         1 PAZ         0.0577 
     35 H4         -3.4466   -2.1458    0.0780 H         1 PAZ         0.1592 
     36 H5         -3.1715   -6.3842   -0.6197 H         1 PAZ         0.1647 
     37 H6         -4.6305   -6.8044    1.3188 H         1 PAZ         0.1405 
     38 H7         -1.0308   -3.9012   -3.6612 H         1 PAZ         0.4556 
     39 H8          0.5411   -2.1128   -4.1104 H         1 PAZ         0.0262 
     40 H9          0.9710   -0.3178   -2.6078 H         1 PAZ         0.1643 
     41 H10         0.3366    2.0435   -0.0856 H         1 PAZ         0.0492 
     42 H11        -0.6100    1.6290   -1.5549 H         1 PAZ         0.0492 
     43 H12         1.1223    1.1673   -1.4426 H         1 PAZ         0.0492 
     44 H13        -1.8039    1.3995    1.2485 H         1 PAZ         0.1521 
     45 H14         1.1420   -1.8407    3.6559 H         1 PAZ         0.1346 
     46 H15         1.1583   -1.5325    1.2668 H         1 PAZ         0.1435 
     47 H16         0.6641   -1.6898    6.0018 H         1 PAZ         0.0550 
     48 H17        -0.9064   -1.5211    6.8572 H         1 PAZ         0.0550 
     49 H18         0.3518   -0.2510    7.0310 H         1 PAZ         0.0550 
     50 H19        -1.8295    0.5942    7.3612 H         1 PAZ         0.0651 
     51 H20        -3.3420    0.9427    6.4570 H         1 PAZ         0.0651 
     52 H21        -2.0861    2.2152    6.6308 H         1 PAZ         0.0651 
     53 H23        -4.6074    0.2949    1.8337 H         1 PAZ         0.4460 
     54 H54        -2.5487   -4.8100   -2.2235 H         1 PAZ         0.0000 
@<TRIPOS>BOND
     1    1    2 1    
     2    1   32 1    
     3    1   33 1    
     4    1   34 1    
     5    2    7 ar   
     6    2    3 ar   
     7    3    4 ar   
     8    3   28 1    
     9    4    5 ar   
    10    4   35 1    
    11    5    6 ar   
    12    5    8 1    
    13    6    7 ar   
    14    6   36 1    
    15    7   37 1    
    16    8    9 1    
    17    8   54 1    
    18    9   14 ar   
    19    9   10 ar   
    20   10   38 1    
    21   10   11 ar   
    22   11   12 ar   
    23   11   39 1    
    24   12   40 1    
    25   12   13 ar   
    26   13   15 2    
    27   13   14 ar   
    28   15   16 1    
    29   15   17 1    
    30   16   41 1    
    31   16   42 1    
    32   16   43 1    
    33   17   25 ar   
    34   17   18 ar   
    35   18   19 ar   
    36   18   44 1    
    37   19   23 ar   
    38   19   20 ar   
    39   20   21 ar   
    40   21   22 ar   
    41   21   27 1    
    42   22   23 ar   
    43   22   26 1    
    44   23   24 ar   
    45   24   25 ar   
    46   24   45 1    
    47   25   46 1    
    48   26   47 1    
    49   26   48 1    
    50   26   49 1    
    51   27   50 1    
    52   27   51 1    
    53   27   52 1    
    54   28   29 2    
    55   28   30 2    
    56   28   31 1    
    57   31   53 1    
@<TRIPOS>SUBSTRUCTURE
     1 PAZ         1 GROUP             0       ****    0 ROOT    
@<TRIPOS>MOLECULE
5-[[4-[(2,3-dimethylindazol-6-yl)-methyl-amino]pyrimidin-2-yl]amino]-2-methyl-benzenesulfonamide
54   57    1
SMALL
USER_CHARGES


@<TRIPOS>ATOM
      1 C1         -5.7603   -4.9945    2.9658 C.3       1 PAZ        -0.0734 
      2 C2         -4.8761   -4.7061    1.7969 C.ar      1 PAZ         0.0254 
      3 C3         -4.5403   -3.3984    1.4463 C.ar      1 PAZ        -0.3573 
      4 C4         -3.7122   -3.1613    0.3491 C.ar      1 PAZ        -0.0858 
      5 C5         -3.2200   -4.2319   -0.3975 C.ar      1 PAZ         0.1399 
      6 C6         -3.5560   -5.5395   -0.0468 C.ar      1 PAZ        -0.0678 
      7 C7         -4.3840   -5.7766    1.0503 C.ar      1 PAZ        -0.1454 
      8 N1         -2.3835   -3.9928   -1.5060 N.pl3     1 PAZ        -0.7355 
      9 C8         -1.4572   -2.9696   -1.8025 C.ar      1 PAZ         0.9123 
     10 N2         -0.8196   -3.0596   -2.9852 N.pl3     1 PAZ        -0.7691 
     11 C9          0.0569   -2.0652   -3.2367 C.ar      1 PAZ         0.4773 
     12 C10         0.3027   -1.0219   -2.3675 C.ar      1 PAZ        -0.4560 
     13 C11        -0.4151   -1.0447   -1.1892 C.ar      1 PAZ         0.7348 
     14 N3         -1.3067   -2.0068   -0.8730 N.ar      1 PAZ        -0.8129 
     15 N4         -0.1931    0.0118   -0.2692 N.pl3     1 PAZ        -0.6753 
     16 C12        -0.3798   -0.3454    1.1426 C.3       1 PAZ         0.2106 
     17 C13         0.4077    1.2666   -0.5590 C.ar      1 PAZ         0.1460 
     18 C14         1.5870    1.6175    0.1342 C.ar      1 PAZ        -0.2289 
     19 C15         2.0987    2.8771   -0.2282 C.ar      1 PAZ         0.3735 
     20 N5          3.1862    3.5350    0.2111 N.2       1 PAZ        -0.5266 
     21 N6          3.1877    4.6915   -0.4799 N.pl3     1 PAZ         0.1500 
     22 C16         2.1531    4.8334   -1.3580 C.ar      1 PAZ        -0.1003 
     23 C17         1.4303    3.6821   -1.2225 C.ar      1 PAZ        -0.2201 
     24 C18         0.2718    3.3661   -1.9209 C.ar      1 PAZ        -0.0538 
     25 C19        -0.2175    2.1015   -1.5382 C.ar      1 PAZ        -0.1506 
     26 C20         1.9811    6.0279   -2.2064 C.3       1 PAZ        -0.0311 
     27 C21         4.2480    5.6440   -0.2407 C.3       1 PAZ         0.0270 
     28 S1         -5.1401   -2.0322    2.3609 S.o2      1 PAZ         1.5219 
     29 O1         -6.5843   -1.9722    2.1954 O.2       1 PAZ        -0.6587 
     30 O2         -4.5634   -2.0854    3.6957 O.2       1 PAZ        -0.6587 
     31 N7         -4.4300   -0.7359    1.5053 N.2       1 PAZ        -1.0249 
     32 H1         -6.0588   -4.0488    3.4418 H         1 PAZ         0.0577 
     33 H2         -5.2161   -5.6152    3.6928 H         1 PAZ         0.0577 
     34 H3         -6.6570   -5.5318    2.6235 H         1 PAZ         0.0577 
     35 H4         -3.4494   -2.1422    0.0745 H         1 PAZ         0.1592 
     36 H5         -3.1780   -6.3811   -0.6217 H         1 PAZ         0.1647 
     37 H6         -4.6398   -6.7992    1.3151 H         1 PAZ         0.1405 
     38 H7         -2.3859   -4.6895   -2.3572 H         1 PAZ         0.4556 
     39 H8          0.5726   -2.1325   -4.1888 H         1 PAZ         0.0262 
     40 H9          1.0141   -0.2418   -2.6085 H         1 PAZ         0.1643 
     41 H10        -0.1858    0.5354    1.7724 H         1 PAZ         0.0492 
     42 H11         0.3194   -1.1505    1.4127 H         1 PAZ         0.0492 
     43 H12        -1.4129   -0.6887    1.3004 H         1 PAZ         0.0492 
     44 H13         2.0524    0.9766    0.8724 H         1 PAZ         0.1521 
     45 H14        -0.2141    3.9853   -2.6618 H         1 PAZ         0.1346 
     46 H15        -1.1283    1.7449   -2.0210 H         1 PAZ         0.1435 
     47 H16         1.0802    5.9105   -2.8265 H         1 PAZ         0.0550 
     48 H17         2.8608    6.1458   -2.8563 H         1 PAZ         0.0550 
     49 H18         1.8741    6.9180   -1.5690 H         1 PAZ         0.0550 
     50 H19         4.1001    6.5259   -0.8814 H         1 PAZ         0.0651 
     51 H20         5.2175    5.1797   -0.4741 H         1 PAZ         0.0651 
     52 H21         4.2334    5.9514    0.8154 H         1 PAZ         0.0651 
     53 H23        -4.6097    0.3002    1.8281 H         1 PAZ         0.4460 
     54 H54        -1.0319   -3.9005   -3.6619 H         1 PAZ         0.0000 
@<TRIPOS>BOND
     1    1    2 1    
     2    1   32 1    
     3    1   33 1    
     4    1   34 1    
     5    2    7 ar   
     6    2    3 ar   
     7    3    4 ar   
     8    3   28 1    
     9    4    5 ar   
    10    4   35 1    
    11    5    6 ar   
    12    5    8 1    
    13    6    7 ar   
    14    6   36 1    
    15    7   37 1    
    16    8    9 1    
    17    8   38 1    
    18    9   14 ar   
    19    9   10 ar   
    20   10   11 ar   
    21   10   54 1    
    22   11   12 ar   
    23   11   39 1    
    24   12   13 ar   
    25   12   40 1    
    26   13   14 ar   
    27   13   15 1    
    28   15   16 1    
    29   15   17 1    
    30   16   41 1    
    31   16   42 1    
    32   16   43 1    
    33   17   25 ar   
    34   17   18 ar   
    35   18   19 ar   
    36   18   44 1    
    37   19   23 ar   
    38   19   20 ar   
    39   20   21 ar   
    40   21   22 ar   
    41   21   27 1    
    42   22   23 ar   
    43   22   26 1    
    44   23   24 ar   
    45   24   25 ar   
    46   24   45 1    
    47   25   46 1    
    48   26   47 1    
    49   26   48 1    
    50   26   49 1    
    51   27   50 1    
    52   27   51 1    
    53   27   52 1    
    54   28   29 2    
    55   28   30 2    
    56   28   31 1    
    57   31   53 1    
@<TRIPOS>SUBSTRUCTURE
     1 PAZ         1 GROUP             0       ****    0 ROOT    
@<TRIPOS>MOLECULE
5-[[4-[(2,3-dimethylindazol-6-yl)-methyl-amino]pyrimidin-2-yl]amino]-2-methyl-benzenesulfonamide
54   57    1
SMALL
USER_CHARGES


@<TRIPOS>ATOM
      1 C1         -4.0998   -8.6170   -4.3475 C.3       1 PAZ        -0.0734 
      2 C2         -3.6261   -7.4055   -3.6133 C.ar      1 PAZ         0.0254 
      3 C3         -2.3323   -6.9130   -3.7843 C.ar      1 PAZ        -0.3573 
      4 C4         -1.9194   -5.7793   -3.0844 C.ar      1 PAZ        -0.0858 
      5 C5         -2.8003   -5.1381   -2.2133 C.ar      1 PAZ         0.1399 
      6 C6         -4.0940   -5.6307   -2.0424 C.ar      1 PAZ        -0.0678 
      7 C7         -4.5069   -6.7643   -2.7423 C.ar      1 PAZ        -0.1454 
      8 N1         -2.3835   -3.9928   -1.5060 N.2       1 PAZ        -0.7355 
      9 C8         -1.4572   -2.9696   -1.8025 C.ar      1 PAZ         0.9123 
     10 N2         -0.8184   -3.0605   -2.9845 N.pl3     1 PAZ        -0.7691 
     11 C9          0.0580   -2.0660   -3.2360 C.ar      1 PAZ         0.4773 
     12 C10         0.3027   -1.0219   -2.3675 C.ar      1 PAZ        -0.4560 
     13 C11        -0.4162   -1.0439   -1.1899 C.ar      1 PAZ         0.7348 
     14 N3         -1.3067   -2.0068   -0.8730 N.2       1 PAZ        -0.8129 
     15 N4         -0.1938    0.0123   -0.2696 N.pl3     1 PAZ        -0.6753 
     16 C12        -0.3801   -0.3453    1.1421 C.3       1 PAZ         0.2106 
     17 C13         0.4071    1.2671   -0.5592 C.ar      1 PAZ         0.1460 
     18 C14         1.5866    1.6177    0.1337 C.ar      1 PAZ        -0.2289 
     19 C15         2.0984    2.8773   -0.2285 C.ar      1 PAZ         0.3735 
     20 N5          3.1861    3.5349    0.2107 N.2       1 PAZ        -0.5266 
     21 N6          3.1876    4.6916   -0.4799 N.pl3     1 PAZ         0.1500 
     22 C16         2.1527    4.8339   -1.3577 C.ar      1 PAZ        -0.1003 
     23 C17         1.4298    3.6827   -1.2223 C.ar      1 PAZ        -0.2201 
     24 C18         0.2711    3.3671   -1.9205 C.ar      1 PAZ        -0.0538 
     25 C19        -0.2183    2.1024   -1.5380 C.ar      1 PAZ        -0.1506 
     26 C20         1.9806    6.0287   -2.2057 C.3       1 PAZ        -0.0311 
     27 C21         4.2481    5.6439   -0.2408 C.3       1 PAZ         0.0270 
     28 S1         -1.2016   -7.6928   -4.8689 S.o2      1 PAZ         1.5219 
     29 O1         -0.8983   -9.0130   -4.3382 O.2       1 PAZ        -0.6587 
     30 O2         -1.7002   -7.5533   -6.2287 O.2       1 PAZ        -0.6587 
     31 N7          0.1686   -6.6912   -4.6792 N.pl3     1 PAZ        -1.0249 
     32 H1         -3.2901   -8.9980   -4.9872 H         1 PAZ         0.0577 
     33 H2         -4.9662   -8.3522   -4.9714 H         1 PAZ         0.0577 
     34 H3         -4.3919   -9.3929   -3.6247 H         1 PAZ         0.0577 
     35 H4         -0.9108   -5.3941   -3.2167 H         1 PAZ         0.1592 
     36 H5         -4.7886   -5.1388   -1.3661 H         1 PAZ         0.1647 
     37 H6         -5.5170   -7.1401   -2.6019 H         1 PAZ         0.1405 
     38 H8          0.5434   -2.1144   -4.1090 H         1 PAZ         0.0262 
     39 H9          0.9655   -0.3138   -2.6110 H         1 PAZ         0.1643 
     40 H10        -0.1859    0.5353    1.7721 H         1 PAZ         0.0492 
     41 H11         0.3191   -1.1505    1.4117 H         1 PAZ         0.0492 
     42 H12        -1.4132   -0.6885    1.3001 H         1 PAZ         0.0492 
     43 H13         1.9768    0.9891    0.8065 H         1 PAZ         0.1521 
     44 H14        -0.2146    3.9032   -2.6109 H         1 PAZ         0.1346 
     45 H15        -1.0509    1.7407   -1.9575 H         1 PAZ         0.1435 
     46 H16         1.0795    5.9116   -2.8256 H         1 PAZ         0.0550 
     47 H17         2.8601    6.1467   -2.8558 H         1 PAZ         0.0550 
     48 H18         1.8740    6.9186   -1.5680 H         1 PAZ         0.0550 
     49 H19         4.1001    6.5260   -0.8811 H         1 PAZ         0.0651 
     50 H20         5.2174    5.1795   -0.4746 H         1 PAZ         0.0651 
     51 H21         4.2338    5.9510    0.8154 H         1 PAZ         0.0651 
     52 H22         0.9856   -7.0632   -5.3149 H         1 PAZ         0.4460 
     53 H23         0.4885   -6.7029   -3.6268 H         1 PAZ         0.4460 
     54 H54        -1.0298   -3.9020   -3.6606 H         1 PAZ         0.0000 
@<TRIPOS>BOND
     1    1    2 1    
     2    1   32 1    
     3    1   33 1    
     4    1   34 1    
     5    2    7 ar   
     6    2    3 ar   
     7    3    4 ar   
     8    3   28 1    
     9    4    5 ar   
    10    4   35 1    
    11    5    6 ar   
    12    5    8 1    
    13    6    7 ar   
    14    6   36 1    
    15    7   37 1    
    16    8    9 2    
    17    9   14 ar   
    18    9   10 ar   
    19   10   11 ar   
    20   10   54 1    
    21   11   12 ar   
    22   11   38 1    
    23   12   39 1    
    24   12   13 ar   
    25   13   15 1    
    26   13   14 ar   
    27   15   16 1    
    28   15   17 1    
    29   16   40 1    
    30   16   41 1    
    31   16   42 1    
    32   17   25 ar   
    33   17   18 ar   
    34   18   19 ar   
    35   18   43 1    
    36   19   23 ar   
    37   19   20 ar   
    38   20   21 ar   
    39   21   22 ar   
    40   21   27 1    
    41   22   23 ar   
    42   22   26 1    
    43   23   24 ar   
    44   24   25 ar   
    45   24   44 1    
    46   25   45 1    
    47   26   46 1    
    48   26   47 1    
    49   26   48 1    
    50   27   49 1    
    51   27   50 1    
    52   27   51 1    
    53   28   29 2    
    54   28   30 2    
    55   28   31 1    
    56   31   52 1    
    57   31   53 1    
@<TRIPOS>SUBSTRUCTURE
     1 PAZ         1 GROUP             0       ****    0 ROOT    
@<TRIPOS>MOLECULE
5-[[4-[(2,3-dimethylindazol-6-yl)-methyl-amino]pyrimidin-2-yl]amino]-2-methyl-benzenesulfonamide
54   57    1
SMALL
USER_CHARGES


@<TRIPOS>ATOM
      1 C1         -5.7509   -5.0014    2.9714 C.3       1 PAZ        -0.0734 
      2 C2         -4.8684   -4.7117    1.8015 C.ar      1 PAZ         0.0254 
      3 C3         -4.5345   -3.4035    1.4508 C.ar      1 PAZ        -0.3573 
      4 C4         -3.7080   -3.1653    0.3526 C.ar      1 PAZ        -0.0858 
      5 C5         -3.2156   -4.2351   -0.3949 C.ar      1 PAZ         0.1399 
      6 C6         -3.5497   -5.5432   -0.0441 C.ar      1 PAZ        -0.0678 
      7 C7         -4.3761   -5.7815    1.0540 C.ar      1 PAZ        -0.1454 
      8 N1         -2.3807   -3.9948   -1.5043 N.2       1 PAZ        -0.7355 
      9 C8         -1.4559   -2.9706   -1.8017 C.ar      1 PAZ         0.9123 
     10 N2         -0.8185   -3.0604   -2.9845 N.pl3     1 PAZ        -0.7691 
     11 C9          0.0579   -2.0660   -3.2361 C.ar      1 PAZ         0.4773 
     12 C10         0.3053   -1.0238   -2.3659 C.ar      1 PAZ        -0.4560 
     13 C11        -0.4151   -1.0447   -1.1892 C.ar      1 PAZ         0.7348 
     14 N3         -1.3053   -2.0078   -0.8721 N.2       1 PAZ        -0.8129 
     15 N4         -0.1931    0.0118   -0.2692 N.pl3     1 PAZ        -0.6753 
     16 C12        -0.3798   -0.3454    1.1426 C.3       1 PAZ         0.2106 
     17 C13         0.1828    1.3435   -0.5930 C.ar      1 PAZ         0.1460 
     18 C14         1.3995    1.8381   -0.0738 C.ar      1 PAZ        -0.2289 
     19 C15         1.6762    3.1638   -0.4555 C.ar      1 PAZ         0.3735 
     20 N5          2.7223    3.9554   -0.1597 N.2       1 PAZ        -0.5266 
     21 N6          2.4617    5.1160   -0.7922 N.pl3     1 PAZ         0.1500 
     22 C16         1.2922    5.1333   -1.4947 C.ar      1 PAZ        -0.1003 
     23 C17         0.7588    3.8908   -1.3001 C.ar      1 PAZ        -0.2201 
     24 C18        -0.4429    3.4337   -1.8261 C.ar      1 PAZ        -0.0538 
     25 C19        -0.6938    2.1056   -1.4280 C.ar      1 PAZ        -0.1506 
     26 C20         0.8319    6.3111   -2.2544 C.3       1 PAZ        -0.0311 
     27 C21         3.4106    6.1999   -0.6770 C.3       1 PAZ         0.0270 
     28 S1         -5.1346   -2.0382    2.3665 S.o2      1 PAZ         1.5219 
     29 O1         -6.5791   -1.9798    2.2028 O.2       1 PAZ        -0.6587 
     30 O2         -4.5562   -2.0912    3.7006 O.2       1 PAZ        -0.6587 
     31 N7         -4.4270   -0.7409    1.5104 N.pl3     1 PAZ        -1.0249 
     32 H1         -6.0498   -4.0562    3.4481 H         1 PAZ         0.0577 
     33 H2         -5.2051   -5.6217    3.6976 H         1 PAZ         0.0577 
     34 H3         -6.6474   -5.5395    2.6300 H         1 PAZ         0.0577 
     35 H4         -3.4466   -2.1458    0.0780 H         1 PAZ         0.1592 
     36 H5         -3.1715   -6.3842   -0.6197 H         1 PAZ         0.1647 
     37 H6         -4.6305   -6.8044    1.3188 H         1 PAZ         0.1405 
     38 H7         -1.0308   -3.9012   -3.6612 H         1 PAZ         0.4556 
     39 H8          0.5411   -2.1128   -4.1104 H         1 PAZ         0.0262 
     40 H9          0.9710   -0.3178   -2.6078 H         1 PAZ         0.1643 
     41 H10        -0.1858    0.5354    1.7724 H         1 PAZ         0.0492 
     42 H11         0.3194   -1.1505    1.4127 H         1 PAZ         0.0492 
     43 H12        -1.4129   -0.6887    1.3004 H         1 PAZ         0.0492 
     44 H13         1.9705    1.2548    0.5039 H         1 PAZ         0.1521 
     45 H14        -1.0978    3.9127   -2.4106 H         1 PAZ         0.1346 
     46 H15        -1.5265    1.6418   -1.7306 H         1 PAZ         0.1435 
     47 H16        -0.1318    6.0845   -2.7339 H         1 PAZ         0.0550 
     48 H17         1.5748    6.5633   -3.0254 H         1 PAZ         0.0550 
     49 H18         0.7096    7.1638   -1.5703 H         1 PAZ         0.0550 
     50 H19         3.0481    7.0669   -1.2488 H         1 PAZ         0.0651 
     51 H20         4.3842    5.8788   -1.0758 H         1 PAZ         0.0651 
     52 H21         3.5218    6.4790    0.3811 H         1 PAZ         0.0651 
     53 H22        -4.7195    0.2104    1.9787 H         1 PAZ         0.4460 
     54 H23        -4.7740   -0.7578    0.4667 H         1 PAZ         0.4460 
@<TRIPOS>BOND
     1    1    2 1    
     2    1   32 1    
     3    1   33 1    
     4    1   34 1    
     5    2    7 ar   
     6    2    3 ar   
     7    3    4 ar   
     8    3   28 1    
     9    4    5 ar   
    10    4   35 1    
    11    5    6 ar   
    12    5    8 1    
    13    6    7 ar   
    14    6   36 1    
    15    7   37 1    
    16    8    9 2    
    17    9   14 ar   
    18    9   10 ar   
    19   10   38 1    
    20   10   11 ar   
    21   11   12 ar   
    22   11   39 1    
    23   12   40 1    
    24   12   13 ar   
    25   13   15 1    
    26   13   14 ar   
    27   15   16 1    
    28   15   17 1    
    29   16   41 1    
    30   16   42 1    
    31   16   43 1    
    32   17   25 ar   
    33   17   18 ar   
    34   18   19 ar   
    35   18   44 1    
    36   19   23 ar   
    37   19   20 ar   
    38   20   21 ar   
    39   21   22 ar   
    40   21   27 1    
    41   22   23 ar   
    42   22   26 1    
    43   23   24 ar   
    44   24   25 ar   
    45   24   45 1    
    46   25   46 1    
    47   26   47 1    
    48   26   48 1    
    49   26   49 1    
    50   27   50 1    
    51   27   51 1    
    52   27   52 1    
    53   28   29 2    
    54   28   30 2    
    55   28   31 1    
    56   31   53 1    
    57   31   54 1    
@<TRIPOS>SUBSTRUCTURE
     1 PAZ         1 GROUP             0       ****    0 ROOT    
@<TRIPOS>MOLECULE
5-[[4-[(2,3-dimethylindazol-6-yl)-methyl-amino]pyrimidin-2-yl]amino]-2-methyl-benzenesulfonamide
55   58    1
SMALL
USER_CHARGES


@<TRIPOS>ATOM
      1 C1         -5.7603   -4.9945    2.9658 C.3       1 PAZ        -0.0734 
      2 C2         -4.8761   -4.7061    1.7969 C.ar      1 PAZ         0.0254 
      3 C3         -4.5403   -3.3984    1.4463 C.ar      1 PAZ        -0.3573 
      4 C4         -3.7122   -3.1613    0.3491 C.ar      1 PAZ        -0.0858 
      5 C5         -3.2200   -4.2319   -0.3975 C.ar      1 PAZ         0.1399 
      6 C6         -3.5560   -5.5395   -0.0468 C.ar      1 PAZ        -0.0678 
      7 C7         -4.3840   -5.7766    1.0503 C.ar      1 PAZ        -0.1454 
      8 N1         -2.3835   -3.9928   -1.5060 N.pl3     1 PAZ        -0.7355 
      9 C8         -1.4572   -2.9696   -1.8025 C.ar      1 PAZ         0.9123 
     10 N2         -0.8196   -3.0596   -2.9852 N.ar      1 PAZ        -0.7691 
     11 C9          0.0569   -2.0652   -3.2367 C.ar      1 PAZ         0.4773 
     12 C10         0.3027   -1.0219   -2.3675 C.ar      1 PAZ        -0.4560 
     13 C11        -0.4151   -1.0447   -1.1892 C.ar      1 PAZ         0.7348 
     14 N3         -1.3067   -2.0068   -0.8730 N.pl3     1 PAZ        -0.8129 
     15 N4         -0.1931    0.0118   -0.2692 N.pl3     1 PAZ        -0.6753 
     16 C12        -0.3798   -0.3454    1.1426 C.3       1 PAZ         0.2106 
     17 C13         0.4077    1.2666   -0.5590 C.ar      1 PAZ         0.1460 
     18 C14         1.5870    1.6175    0.1342 C.ar      1 PAZ        -0.2289 
     19 C15         2.0987    2.8771   -0.2282 C.ar      1 PAZ         0.3735 
     20 N5          3.1862    3.5350    0.2111 N.2       1 PAZ        -0.5266 
     21 N6          3.1877    4.6915   -0.4799 N.pl3     1 PAZ         0.1500 
     22 C16         2.1531    4.8334   -1.3580 C.ar      1 PAZ        -0.1003 
     23 C17         1.4303    3.6821   -1.2225 C.ar      1 PAZ        -0.2201 
     24 C18         0.2718    3.3661   -1.9209 C.ar      1 PAZ        -0.0538 
     25 C19        -0.2175    2.1015   -1.5382 C.ar      1 PAZ        -0.1506 
     26 C20         1.9811    6.0279   -2.2064 C.3       1 PAZ        -0.0311 
     27 C21         4.2480    5.6440   -0.2407 C.3       1 PAZ         0.0270 
     28 S1         -5.1401   -2.0322    2.3609 S.o2      1 PAZ         1.5219 
     29 O1         -6.5843   -1.9722    2.1954 O.2       1 PAZ        -0.6587 
     30 O2         -4.5634   -2.0854    3.6957 O.2       1 PAZ        -0.6587 
     31 N7         -4.4300   -0.7359    1.5053 N.pl3     1 PAZ        -1.0249 
     32 H1         -6.0588   -4.0488    3.4418 H         1 PAZ         0.0577 
     33 H2         -5.2161   -5.6152    3.6928 H         1 PAZ         0.0577 
     34 H3         -6.6570   -5.5318    2.6235 H         1 PAZ         0.0577 
     35 H4         -3.4494   -2.1422    0.0745 H         1 PAZ         0.1592 
     36 H5         -3.1780   -6.3811   -0.6217 H         1 PAZ         0.1647 
     37 H6         -4.6398   -6.7992    1.3151 H         1 PAZ         0.1405 
     38 H7         -2.3859   -4.6895   -2.3572 H         1 PAZ         0.4556 
     39 H8          0.5726   -2.1325   -4.1888 H         1 PAZ         0.0262 
     40 H9          1.0141   -0.2418   -2.6085 H         1 PAZ         0.1643 
     41 H10        -0.1858    0.5354    1.7724 H         1 PAZ         0.0492 
     42 H11         0.3194   -1.1505    1.4127 H         1 PAZ         0.0492 
     43 H12        -1.4129   -0.6887    1.3004 H         1 PAZ         0.0492 
     44 H13         2.0524    0.9766    0.8724 H         1 PAZ         0.1521 
     45 H14        -0.2141    3.9853   -2.6618 H         1 PAZ         0.1346 
     46 H15        -1.1283    1.7449   -2.0210 H         1 PAZ         0.1435 
     47 H16         1.0802    5.9105   -2.8265 H         1 PAZ         0.0550 
     48 H17         2.8608    6.1458   -2.8563 H         1 PAZ         0.0550 
     49 H18         1.8741    6.9180   -1.5690 H         1 PAZ         0.0550 
     50 H19         4.1001    6.5259   -0.8814 H         1 PAZ         0.0651 
     51 H20         5.2175    5.1797   -0.4741 H         1 PAZ         0.0651 
     52 H21         4.2334    5.9514    0.8154 H         1 PAZ         0.0651 
     53 H22        -4.7221    0.2159    1.9730 H         1 PAZ         0.4460 
     54 H23        -4.7757   -0.7527    0.4612 H         1 PAZ         0.4460 
     55 H55        -1.8900   -2.0459    0.0588 H         1 PAZ         0.0000 
@<TRIPOS>BOND
     1    1    2 1    
     2    1   32 1    
     3    1   33 1    
     4    1   34 1    
     5    2    7 ar   
     6    2    3 ar   
     7    3    4 ar   
     8    3   28 1    
     9    4    5 ar   
    10    4   35 1    
    11    5    6 ar   
    12    5    8 1    
    13    6    7 ar   
    14    6   36 1    
    15    7   37 1    
    16    8    9 1    
    17    8   38 1    
    18    9   14 ar   
    19    9   10 ar   
    20   10   11 ar   
    21   11   12 ar   
    22   11   39 1    
    23   12   13 ar   
    24   12   40 1    
    25   13   14 ar   
    26   13   15 1    
    27   14   55 1    
    28   15   16 1    
    29   15   17 1    
    30   16   41 1    
    31   16   42 1    
    32   16   43 1    
    33   17   25 ar   
    34   17   18 ar   
    35   18   19 ar   
    36   18   44 1    
    37   19   23 ar   
    38   19   20 ar   
    39   20   21 ar   
    40   21   22 ar   
    41   21   27 1    
    42   22   23 ar   
    43   22   26 1    
    44   23   24 ar   
    45   24   25 ar   
    46   24   45 1    
    47   25   46 1    
    48   26   47 1    
    49   26   48 1    
    50   26   49 1    
    51   27   50 1    
    52   27   51 1    
    53   27   52 1    
    54   28   29 2    
    55   28   30 2    
    56   28   31 1    
    57   31   53 1    
    58   31   54 1    
@<TRIPOS>SUBSTRUCTURE
     1 PAZ         1 GROUP             0       ****    0 ROOT    
@<TRIPOS>MOLECULE
5-[[4-[(2,3-dimethylindazol-6-yl)-methyl-amino]pyrimidin-2-yl]amino]-2-methyl-benzenesulfonamide
54   57    1
SMALL
USER_CHARGES


@<TRIPOS>ATOM
      1 C1         -5.7603   -4.9945    2.9658 C.3       1 PAZ        -0.0734 
      2 C2         -4.8761   -4.7061    1.7969 C.ar      1 PAZ         0.0254 
      3 C3         -4.5403   -3.3984    1.4463 C.ar      1 PAZ        -0.3573 
      4 C4         -3.7122   -3.1613    0.3491 C.ar      1 PAZ        -0.0858 
      5 C5         -3.2200   -4.2319   -0.3975 C.ar      1 PAZ         0.1399 
      6 C6         -3.5560   -5.5395   -0.0468 C.ar      1 PAZ        -0.0678 
      7 C7         -4.3840   -5.7766    1.0503 C.ar      1 PAZ        -0.1454 
      8 N1         -2.3835   -3.9928   -1.5060 N.pl3     1 PAZ        -0.7355 
      9 C8         -1.4572   -2.9696   -1.8025 C.ar      1 PAZ         0.9123 
     10 N2         -0.8196   -3.0596   -2.9852 N.ar      1 PAZ        -0.7691 
     11 C9          0.0569   -2.0652   -3.2367 C.ar      1 PAZ         0.4773 
     12 C10         0.3027   -1.0219   -2.3675 C.ar      1 PAZ        -0.4560 
     13 C11        -0.4151   -1.0447   -1.1892 C.ar      1 PAZ         0.7348 
     14 N3         -1.3067   -2.0068   -0.8730 N.ar      1 PAZ        -0.8129 
     15 N4         -0.1931    0.0118   -0.2692 N.pl3     1 PAZ        -0.6753 
     16 C12        -0.3798   -0.3454    1.1426 C.3       1 PAZ         0.2106 
     17 C13         0.4077    1.2666   -0.5590 C.ar      1 PAZ         0.1460 
     18 C14         1.5870    1.6175    0.1342 C.ar      1 PAZ        -0.2289 
     19 C15         2.0987    2.8771   -0.2282 C.ar      1 PAZ         0.3735 
     20 N5          3.1862    3.5350    0.2111 N.pl3     1 PAZ        -0.5266 
     21 N6          3.1877    4.6915   -0.4799 N.pl3     1 PAZ         0.1500 
     22 C16         2.1531    4.8334   -1.3580 C.ar      1 PAZ        -0.1003 
     23 C17         1.4303    3.6821   -1.2225 C.ar      1 PAZ        -0.2201 
     24 C18         0.2718    3.3661   -1.9209 C.ar      1 PAZ        -0.0538 
     25 C19        -0.2175    2.1015   -1.5382 C.ar      1 PAZ        -0.1506 
     26 C20         1.9811    6.0279   -2.2064 C.3       1 PAZ        -0.0311 
     27 C21         4.2480    5.6440   -0.2407 C.3       1 PAZ         0.0270 
     28 S1         -5.1401   -2.0322    2.3609 S.o2      1 PAZ         1.5219 
     29 O1         -6.5843   -1.9722    2.1954 O.2       1 PAZ        -0.6587 
     30 O2         -4.5634   -2.0854    3.6957 O.2       1 PAZ        -0.6587 
     31 N7         -4.4300   -0.7359    1.5053 N.2       1 PAZ        -1.0249 
     32 H1         -6.0588   -4.0488    3.4418 H         1 PAZ         0.0577 
     33 H2         -5.2161   -5.6152    3.6928 H         1 PAZ         0.0577 
     34 H3         -6.6570   -5.5318    2.6235 H         1 PAZ         0.0577 
     35 H4         -3.4494   -2.1422    0.0745 H         1 PAZ         0.1592 
     36 H5         -3.1780   -6.3811   -0.6217 H         1 PAZ         0.1647 
     37 H6         -4.6398   -6.7992    1.3151 H         1 PAZ         0.1405 
     38 H7         -2.3859   -4.6895   -2.3572 H         1 PAZ         0.4556 
     39 H8          0.5726   -2.1325   -4.1888 H         1 PAZ         0.0262 
     40 H9          1.0141   -0.2418   -2.6085 H         1 PAZ         0.1643 
     41 H10        -0.1858    0.5354    1.7724 H         1 PAZ         0.0492 
     42 H11         0.3194   -1.1505    1.4127 H         1 PAZ         0.0492 
     43 H12        -1.4129   -0.6887    1.3004 H         1 PAZ         0.0492 
     44 H13         2.0524    0.9766    0.8724 H         1 PAZ         0.1521 
     45 H14        -0.2141    3.9853   -2.6618 H         1 PAZ         0.1346 
     46 H15        -1.1283    1.7449   -2.0210 H         1 PAZ         0.1435 
     47 H16         1.0802    5.9105   -2.8265 H         1 PAZ         0.0550 
     48 H17         2.8608    6.1458   -2.8563 H         1 PAZ         0.0550 
     49 H18         1.8741    6.9180   -1.5690 H         1 PAZ         0.0550 
     50 H19         4.1001    6.5259   -0.8814 H         1 PAZ         0.0651 
     51 H20         5.2175    5.1797   -0.4741 H         1 PAZ         0.0651 
     52 H21         4.2334    5.9514    0.8154 H         1 PAZ         0.0651 
     53 H23        -4.6097    0.3002    1.8281 H         1 PAZ         0.4460 
     54 H54         3.8316    3.0808    0.9773 H         1 PAZ         0.0000 
@<TRIPOS>BOND
     1    1    2 1    
     2    1   32 1    
     3    1   33 1    
     4    1   34 1    
     5    2    7 ar   
     6    2    3 ar   
     7    3    4 ar   
     8    3   28 1    
     9    4    5 ar   
    10    4   35 1    
    11    5    6 ar   
    12    5    8 1    
    13    6    7 ar   
    14    6   36 1    
    15    7   37 1    
    16    8    9 1    
    17    8   38 1    
    18    9   14 ar   
    19    9   10 ar   
    20   10   11 ar   
    21   11   12 ar   
    22   11   39 1    
    23   12   13 ar   
    24   12   40 1    
    25   13   14 ar   
    26   13   15 1    
    27   15   16 1    
    28   15   17 1    
    29   16   41 1    
    30   16   42 1    
    31   16   43 1    
    32   17   25 ar   
    33   17   18 ar   
    34   18   19 ar   
    35   18   44 1    
    36   19   23 ar   
    37   19   20 ar   
    38   20   21 1    
    39   20   54 1    
    40   21   22 ar   
    41   21   27 1    
    42   22   23 ar   
    43   22   26 1    
    44   23   24 ar   
    45   24   25 ar   
    46   24   45 1    
    47   25   46 1    
    48   26   47 1    
    49   26   48 1    
    50   26   49 1    
    51   27   50 1    
    52   27   51 1    
    53   27   52 1    
    54   28   29 2    
    55   28   30 2    
    56   28   31 1    
    57   31   53 1    
@<TRIPOS>SUBSTRUCTURE
     1 PAZ         1 GROUP             0       ****    0 ROOT    
@<TRIPOS>MOLECULE
5-[[4-[(2,3-dimethylindazol-6-yl)-methyl-amino]pyrimidin-2-yl]amino]-2-methyl-benzenesulfonamide
54   57    1
SMALL
USER_CHARGES


@<TRIPOS>ATOM
      1 C1         -5.7603   -4.9945    2.9658 C.3       1 PAZ        -0.0734 
      2 C2         -4.8761   -4.7061    1.7969 C.ar      1 PAZ         0.0254 
      3 C3         -4.5403   -3.3984    1.4463 C.ar      1 PAZ        -0.3573 
      4 C4         -3.7122   -3.1613    0.3491 C.ar      1 PAZ        -0.0858 
      5 C5         -3.2200   -4.2319   -0.3975 C.ar      1 PAZ         0.1399 
      6 C6         -3.5560   -5.5395   -0.0468 C.ar      1 PAZ        -0.0678 
      7 C7         -4.3840   -5.7766    1.0503 C.ar      1 PAZ        -0.1454 
      8 N1         -2.3835   -3.9928   -1.5060 N.pl3     1 PAZ        -0.7355 
      9 C8         -1.4572   -2.9696   -1.8025 C.ar      1 PAZ         0.9123 
     10 N2         -0.8196   -3.0596   -2.9852 N.ar      1 PAZ        -0.7691 
     11 C9          0.0569   -2.0652   -3.2367 C.ar      1 PAZ         0.4773 
     12 C10         0.3027   -1.0219   -2.3675 C.ar      1 PAZ        -0.4560 
     13 C11        -0.4151   -1.0447   -1.1892 C.ar      1 PAZ         0.7348 
     14 N3         -1.3067   -2.0068   -0.8730 N.pl3     1 PAZ        -0.8129 
     15 N4         -0.1931    0.0118   -0.2692 N.pl3     1 PAZ        -0.6753 
     16 C12        -0.3798   -0.3454    1.1426 C.3       1 PAZ         0.2106 
     17 C13         0.4077    1.2666   -0.5590 C.ar      1 PAZ         0.1460 
     18 C14         1.5870    1.6175    0.1342 C.ar      1 PAZ        -0.2289 
     19 C15         2.0987    2.8771   -0.2282 C.ar      1 PAZ         0.3735 
     20 N5          3.1862    3.5350    0.2111 N.2       1 PAZ        -0.5266 
     21 N6          3.1877    4.6915   -0.4799 N.pl3     1 PAZ         0.1500 
     22 C16         2.1531    4.8334   -1.3580 C.ar      1 PAZ        -0.1003 
     23 C17         1.4303    3.6821   -1.2225 C.ar      1 PAZ        -0.2201 
     24 C18         0.2718    3.3661   -1.9209 C.ar      1 PAZ        -0.0538 
     25 C19        -0.2175    2.1015   -1.5382 C.ar      1 PAZ        -0.1506 
     26 C20         1.9811    6.0279   -2.2064 C.3       1 PAZ        -0.0311 
     27 C21         4.2480    5.6440   -0.2407 C.3       1 PAZ         0.0270 
     28 S1         -5.1401   -2.0322    2.3609 S.o2      1 PAZ         1.5219 
     29 O1         -6.5843   -1.9722    2.1954 O.2       1 PAZ        -0.6587 
     30 O2         -4.5634   -2.0854    3.6957 O.2       1 PAZ        -0.6587 
     31 N7         -4.4300   -0.7359    1.5053 N.2       1 PAZ        -1.0249 
     32 H1         -6.0588   -4.0488    3.4418 H         1 PAZ         0.0577 
     33 H2         -5.2161   -5.6152    3.6928 H         1 PAZ         0.0577 
     34 H3         -6.6570   -5.5318    2.6235 H         1 PAZ         0.0577 
     35 H4         -3.4494   -2.1422    0.0745 H         1 PAZ         0.1592 
     36 H5         -3.1780   -6.3811   -0.6217 H         1 PAZ         0.1647 
     37 H6         -4.6398   -6.7992    1.3151 H         1 PAZ         0.1405 
     38 H7         -2.3859   -4.6895   -2.3572 H         1 PAZ         0.4556 
     39 H8          0.5726   -2.1325   -4.1888 H         1 PAZ         0.0262 
     40 H9          1.0141   -0.2418   -2.6085 H         1 PAZ         0.1643 
     41 H10        -0.1858    0.5354    1.7724 H         1 PAZ         0.0492 
     42 H11         0.3194   -1.1505    1.4127 H         1 PAZ         0.0492 
     43 H12        -1.4129   -0.6887    1.3004 H         1 PAZ         0.0492 
     44 H13         2.0524    0.9766    0.8724 H         1 PAZ         0.1521 
     45 H14        -0.2141    3.9853   -2.6618 H         1 PAZ         0.1346 
     46 H15        -1.1283    1.7449   -2.0210 H         1 PAZ         0.1435 
     47 H16         1.0802    5.9105   -2.8265 H         1 PAZ         0.0550 
     48 H17         2.8608    6.1458   -2.8563 H         1 PAZ         0.0550 
     49 H18         1.8741    6.9180   -1.5690 H         1 PAZ         0.0550 
     50 H19         4.1001    6.5259   -0.8814 H         1 PAZ         0.0651 
     51 H20         5.2175    5.1797   -0.4741 H         1 PAZ         0.0651 
     52 H21         4.2334    5.9514    0.8154 H         1 PAZ         0.0651 
     53 H23        -4.6097    0.3002    1.8281 H         1 PAZ         0.4460 
     54 H54        -1.8900   -2.0459    0.0588 H         1 PAZ         0.0000 
@<TRIPOS>BOND
     1    1    2 1    
     2    1   32 1    
     3    1   33 1    
     4    1   34 1    
     5    2    7 ar   
     6    2    3 ar   
     7    3    4 ar   
     8    3   28 1    
     9    4    5 ar   
    10    4   35 1    
    11    5    6 ar   
    12    5    8 1    
    13    6    7 ar   
    14    6   36 1    
    15    7   37 1    
    16    8    9 1    
    17    8   38 1    
    18    9   14 ar   
    19    9   10 ar   
    20   10   11 ar   
    21   11   12 ar   
    22   11   39 1    
    23   12   13 ar   
    24   12   40 1    
    25   13   14 ar   
    26   13   15 1    
    27   14   54 1    
    28   15   16 1    
    29   15   17 1    
    30   16   41 1    
    31   16   42 1    
    32   16   43 1    
    33   17   25 ar   
    34   17   18 ar   
    35   18   19 ar   
    36   18   44 1    
    37   19   23 ar   
    38   19   20 ar   
    39   20   21 ar   
    40   21   22 ar   
    41   21   27 1    
    42   22   23 ar   
    43   22   26 1    
    44   23   24 ar   
    45   24   25 ar   
    46   24   45 1    
    47   25   46 1    
    48   26   47 1    
    49   26   48 1    
    50   26   49 1    
    51   27   50 1    
    52   27   51 1    
    53   27   52 1    
    54   28   29 2    
    55   28   30 2    
    56   28   31 1    
    57   31   53 1    
@<TRIPOS>SUBSTRUCTURE
     1 PAZ         1 GROUP             0       ****    0 ROOT    
@<TRIPOS>MOLECULE
5-[[4-[(2,3-dimethylindazol-6-yl)-methyl-amino]pyrimidin-2-yl]amino]-2-methyl-benzenesulfonamide
55   58    1
SMALL
USER_CHARGES


@<TRIPOS>ATOM
      1 C1         -5.7509   -5.0014    2.9714 C.3       1 PAZ        -0.0734 
      2 C2         -4.8684   -4.7117    1.8015 C.ar      1 PAZ         0.0254 
      3 C3         -4.5345   -3.4035    1.4508 C.ar      1 PAZ        -0.3573 
      4 C4         -3.7080   -3.1653    0.3526 C.ar      1 PAZ        -0.0858 
      5 C5         -3.2156   -4.2351   -0.3949 C.ar      1 PAZ         0.1399 
      6 C6         -3.5497   -5.5432   -0.0441 C.ar      1 PAZ        -0.0678 
      7 C7         -4.3761   -5.7815    1.0540 C.ar      1 PAZ        -0.1454 
      8 N1         -2.3807   -3.9948   -1.5043 N.pl3     1 PAZ        -0.7355 
      9 C8         -1.4559   -2.9706   -1.8017 C.ar      1 PAZ         0.9123 
     10 N2         -0.8185   -3.0604   -2.9845 N.pl3     1 PAZ        -0.7691 
     11 C9          0.0579   -2.0660   -3.2361 C.ar      1 PAZ         0.4773 
     12 C10         0.3053   -1.0238   -2.3659 C.ar      1 PAZ        -0.4560 
     13 C11        -0.4151   -1.0447   -1.1892 C.ar      1 PAZ         0.7348 
     14 N3         -1.3053   -2.0078   -0.8721 N.2       1 PAZ        -0.8129 
     15 N4         -0.1931    0.0118   -0.2692 N.pl3     1 PAZ        -0.6753 
     16 C12        -0.3798   -0.3454    1.1426 C.3       1 PAZ         0.2106 
     17 C13         0.1828    1.3435   -0.5930 C.ar      1 PAZ         0.1460 
     18 C14         1.3995    1.8381   -0.0738 C.ar      1 PAZ        -0.2289 
     19 C15         1.6762    3.1638   -0.4555 C.ar      1 PAZ         0.3735 
     20 N5          2.7223    3.9554   -0.1597 N.pl3     1 PAZ        -0.5266 
     21 N6          2.4617    5.1160   -0.7922 N.pl3     1 PAZ         0.1500 
     22 C16         1.2922    5.1333   -1.4947 C.ar      1 PAZ        -0.1003 
     23 C17         0.7588    3.8908   -1.3001 C.ar      1 PAZ        -0.2201 
     24 C18        -0.4429    3.4337   -1.8261 C.ar      1 PAZ        -0.0538 
     25 C19        -0.6938    2.1056   -1.4280 C.ar      1 PAZ        -0.1506 
     26 C20         0.8319    6.3111   -2.2544 C.3       1 PAZ        -0.0311 
     27 C21         3.4106    6.1999   -0.6770 C.3       1 PAZ         0.0270 
     28 S1         -5.1346   -2.0382    2.3665 S.o2      1 PAZ         1.5219 
     29 O1         -6.5791   -1.9798    2.2028 O.2       1 PAZ        -0.6587 
     30 O2         -4.5562   -2.0912    3.7006 O.2       1 PAZ        -0.6587 
     31 N7         -4.4270   -0.7409    1.5104 N.2       1 PAZ        -1.0249 
     32 H1         -6.0498   -4.0562    3.4481 H         1 PAZ         0.0577 
     33 H2         -5.2051   -5.6217    3.6976 H         1 PAZ         0.0577 
     34 H3         -6.6474   -5.5395    2.6300 H         1 PAZ         0.0577 
     35 H4         -3.4466   -2.1458    0.0780 H         1 PAZ         0.1592 
     36 H5         -3.1715   -6.3842   -0.6197 H         1 PAZ         0.1647 
     37 H6         -4.6305   -6.8044    1.3188 H         1 PAZ         0.1405 
     38 H7         -1.0308   -3.9012   -3.6612 H         1 PAZ         0.4556 
     39 H8          0.5411   -2.1128   -4.1104 H         1 PAZ         0.0262 
     40 H9          0.9710   -0.3178   -2.6078 H         1 PAZ         0.1643 
     41 H10        -0.1858    0.5354    1.7724 H         1 PAZ         0.0492 
     42 H11         0.3194   -1.1505    1.4127 H         1 PAZ         0.0492 
     43 H12        -1.4129   -0.6887    1.3004 H         1 PAZ         0.0492 
     44 H13         1.9705    1.2548    0.5039 H         1 PAZ         0.1521 
     45 H14        -1.0978    3.9127   -2.4106 H         1 PAZ         0.1346 
     46 H15        -1.5265    1.6418   -1.7306 H         1 PAZ         0.1435 
     47 H16        -0.1318    6.0845   -2.7339 H         1 PAZ         0.0550 
     48 H17         1.5748    6.5633   -3.0254 H         1 PAZ         0.0550 
     49 H18         0.7096    7.1638   -1.5703 H         1 PAZ         0.0550 
     50 H19         3.0481    7.0669   -1.2488 H         1 PAZ         0.0651 
     51 H20         4.3842    5.8788   -1.0758 H         1 PAZ         0.0651 
     52 H21         3.5218    6.4790    0.3811 H         1 PAZ         0.0651 
     53 H23        -4.6074    0.2949    1.8337 H         1 PAZ         0.4460 
     54 H54        -2.5487   -4.8100   -2.2235 H         1 PAZ         0.0000 
     55 H55         3.5348    3.5776    0.4785 H         1 PAZ         0.0000 
@<TRIPOS>BOND
     1    1    2 1    
     2    1   32 1    
     3    1   33 1    
     4    1   34 1    
     5    2    7 ar   
     6    2    3 ar   
     7    3    4 ar   
     8    3   28 1    
     9    4    5 ar   
    10    4   35 1    
    11    5    6 ar   
    12    5    8 1    
    13    6    7 ar   
    14    6   36 1    
    15    7   37 1    
    16    8    9 1    
    17    8   54 1    
    18    9   14 ar   
    19    9   10 ar   
    20   10   38 1    
    21   10   11 ar   
    22   11   12 ar   
    23   11   39 1    
    24   12   40 1    
    25   12   13 ar   
    26   13   15 2    
    27   13   14 ar   
    28   15   16 1    
    29   15   17 1    
    30   16   41 1    
    31   16   42 1    
    32   16   43 1    
    33   17   25 ar   
    34   17   18 ar   
    35   18   19 ar   
    36   18   44 1    
    37   19   23 ar   
    38   19   20 ar   
    39   20   21 1    
    40   20   55 1    
    41   21   22 ar   
    42   21   27 1    
    43   22   23 ar   
    44   22   26 1    
    45   23   24 ar   
    46   24   25 ar   
    47   24   45 1    
    48   25   46 1    
    49   26   47 1    
    50   26   48 1    
    51   26   49 1    
    52   27   50 1    
    53   27   51 1    
    54   27   52 1    
    55   28   29 2    
    56   28   30 2    
    57   28   31 1    
    58   31   53 1    
@<TRIPOS>SUBSTRUCTURE
     1 PAZ         1 GROUP             0       ****    0 ROOT    
@<TRIPOS>MOLECULE
5-[[4-[(2,3-dimethylindazol-6-yl)-methyl-amino]pyrimidin-2-yl]amino]-2-methyl-benzenesulfonamide
55   58    1
SMALL
USER_CHARGES


@<TRIPOS>ATOM
      1 C1         -5.7509   -5.0014    2.9714 C.3       1 PAZ        -0.0734 
      2 C2         -4.8684   -4.7117    1.8015 C.ar      1 PAZ         0.0254 
      3 C3         -4.5345   -3.4035    1.4508 C.ar      1 PAZ        -0.3573 
      4 C4         -3.7080   -3.1653    0.3526 C.ar      1 PAZ        -0.0858 
      5 C5         -3.2156   -4.2351   -0.3949 C.ar      1 PAZ         0.1399 
      6 C6         -3.5497   -5.5432   -0.0441 C.ar      1 PAZ        -0.0678 
      7 C7         -4.3761   -5.7815    1.0540 C.ar      1 PAZ        -0.1454 
      8 N1         -2.3807   -3.9948   -1.5043 N.pl3     1 PAZ        -0.7355 
      9 C8         -1.4559   -2.9706   -1.8017 C.ar      1 PAZ         0.9123 
     10 N2         -0.8185   -3.0604   -2.9845 N.pl3     1 PAZ        -0.7691 
     11 C9          0.0579   -2.0660   -3.2361 C.ar      1 PAZ         0.4773 
     12 C10         0.3053   -1.0238   -2.3659 C.ar      1 PAZ        -0.4560 
     13 C11        -0.4151   -1.0447   -1.1892 C.ar      1 PAZ         0.7348 
     14 N3         -1.3053   -2.0078   -0.8721 N.2       1 PAZ        -0.8129 
     15 N4         -0.1931    0.0118   -0.2692 N.pl3     1 PAZ        -0.6753 
     16 C12         0.1878    1.2933   -0.8762 C.3       1 PAZ         0.2106 
     17 C13        -0.3059   -0.0675    1.1452 C.ar      1 PAZ         0.1460 
     18 C14        -1.2422    0.7721    1.7878 C.ar      1 PAZ        -0.2289 
     19 C15        -1.2737    0.6131    3.1855 C.ar      1 PAZ         0.3735 
     20 N5         -2.0240    1.2296    4.1158 N.pl3     1 PAZ        -0.5266 
     21 N6         -1.6339    0.6849    5.2846 N.pl3     1 PAZ         0.1500 
     22 C16        -0.6603   -0.2647    5.1754 C.ar      1 PAZ        -0.1003 
     23 C17        -0.4033   -0.3372    3.8356 C.ar      1 PAZ        -0.2201 
     24 C18         0.5262   -1.1757    3.2334 C.ar      1 PAZ        -0.0538 
     25 C19         0.5360   -0.9952    1.8361 C.ar      1 PAZ        -0.1506 
     26 C20        -0.1022   -0.9769    6.3405 C.3       1 PAZ        -0.0311 
     27 C21        -2.2603    1.1362    6.5064 C.3       1 PAZ         0.0270 
     28 S1         -5.1346   -2.0382    2.3665 S.o2      1 PAZ         1.5219 
     29 O1         -6.5791   -1.9798    2.2028 O.2       1 PAZ        -0.6587 
     30 O2         -4.5562   -2.0912    3.7006 O.2       1 PAZ        -0.6587 
     31 N7         -4.4270   -0.7409    1.5104 N.2       1 PAZ        -1.0249 
     32 H1         -6.0498   -4.0562    3.4481 H         1 PAZ         0.0577 
     33 H2         -5.2051   -5.6217    3.6976 H         1 PAZ         0.0577 
     34 H3         -6.6474   -5.5395    2.6300 H         1 PAZ         0.0577 
     35 H4         -3.4466   -2.1458    0.0780 H         1 PAZ         0.1592 
     36 H5         -3.1715   -6.3842   -0.6197 H         1 PAZ         0.1647 
     37 H6         -4.6305   -6.8044    1.3188 H         1 PAZ         0.1405 
     38 H7         -1.0308   -3.9012   -3.6612 H         1 PAZ         0.4556 
     39 H8          0.5411   -2.1128   -4.1104 H         1 PAZ         0.0262 
     40 H9          0.9710   -0.3178   -2.6078 H         1 PAZ         0.1643 
     41 H10         0.3366    2.0435   -0.0856 H         1 PAZ         0.0492 
     42 H11        -0.6100    1.6290   -1.5549 H         1 PAZ         0.0492 
     43 H12         1.1223    1.1673   -1.4426 H         1 PAZ         0.0492 
     44 H13        -1.8039    1.3995    1.2485 H         1 PAZ         0.1521 
     45 H14         1.1420   -1.8407    3.6559 H         1 PAZ         0.1346 
     46 H15         1.1583   -1.5325    1.2668 H         1 PAZ         0.1435 
     47 H16         0.6641   -1.6898    6.0018 H         1 PAZ         0.0550 
     48 H17        -0.9064   -1.5211    6.8572 H         1 PAZ         0.0550 
     49 H18         0.3518   -0.2510    7.0310 H         1 PAZ         0.0550 
     50 H19        -1.8295    0.5942    7.3612 H         1 PAZ         0.0651 
     51 H20        -3.3420    0.9427    6.4570 H         1 PAZ         0.0651 
     52 H21        -2.0861    2.2152    6.6308 H         1 PAZ         0.0651 
     53 H23        -4.6074    0.2949    1.8337 H         1 PAZ         0.4460 
     54 H54        -2.5487   -4.8100   -2.2235 H         1 PAZ         0.0000 
     55 H55        -2.7551    1.9942    3.8145 H         1 PAZ         0.0000 
@<TRIPOS>BOND
     1    1    2 1    
     2    1   32 1    
     3    1   33 1    
     4    1   34 1    
     5    2    7 ar   
     6    2    3 ar   
     7    3    4 ar   
     8    3   28 1    
     9    4    5 ar   
    10    4   35 1    
    11    5    6 ar   
    12    5    8 1    
    13    6    7 ar   
    14    6   36 1    
    15    7   37 1    
    16    8    9 1    
    17    8   54 1    
    18    9   14 ar   
    19    9   10 ar   
    20   10   38 1    
    21   10   11 ar   
    22   11   12 ar   
    23   11   39 1    
    24   12   40 1    
    25   12   13 ar   
    26   13   15 2    
    27   13   14 ar   
    28   15   16 1    
    29   15   17 1    
    30   16   41 1    
    31   16   42 1    
    32   16   43 1    
    33   17   25 ar   
    34   17   18 ar   
    35   18   19 ar   
    36   18   44 1    
    37   19   23 ar   
    38   19   20 ar   
    39   20   21 1    
    40   20   55 1    
    41   21   22 ar   
    42   21   27 1    
    43   22   23 ar   
    44   22   26 1    
    45   23   24 ar   
    46   24   25 ar   
    47   24   45 1    
    48   25   46 1    
    49   26   47 1    
    50   26   48 1    
    51   26   49 1    
    52   27   50 1    
    53   27   51 1    
    54   27   52 1    
    55   28   29 2    
    56   28   30 2    
    57   28   31 1    
    58   31   53 1    
@<TRIPOS>SUBSTRUCTURE
     1 PAZ         1 GROUP             0       ****    0 ROOT    
@<TRIPOS>MOLECULE
5-[[4-[(2,3-dimethylindazol-6-yl)-methyl-amino]pyrimidin-2-yl]amino]-2-methyl-benzenesulfonamide
55   58    1
SMALL
USER_CHARGES


@<TRIPOS>ATOM
      1 C1         -5.7509   -5.0014    2.9714 C.3       1 PAZ        -0.0734 
      2 C2         -4.8684   -4.7117    1.8015 C.ar      1 PAZ         0.0254 
      3 C3         -4.5345   -3.4035    1.4508 C.ar      1 PAZ        -0.3573 
      4 C4         -3.7080   -3.1653    0.3526 C.ar      1 PAZ        -0.0858 
      5 C5         -3.2156   -4.2351   -0.3949 C.ar      1 PAZ         0.1399 
      6 C6         -3.5497   -5.5432   -0.0441 C.ar      1 PAZ        -0.0678 
      7 C7         -4.3761   -5.7815    1.0540 C.ar      1 PAZ        -0.1454 
      8 N1         -2.3807   -3.9948   -1.5043 N.2       1 PAZ        -0.7355 
      9 C8         -1.4559   -2.9706   -1.8017 C.ar      1 PAZ         0.9123 
     10 N2         -0.8185   -3.0604   -2.9845 N.pl3     1 PAZ        -0.7691 
     11 C9          0.0579   -2.0660   -3.2361 C.ar      1 PAZ         0.4773 
     12 C10         0.3053   -1.0238   -2.3659 C.ar      1 PAZ        -0.4560 
     13 C11        -0.4151   -1.0447   -1.1892 C.ar      1 PAZ         0.7348 
     14 N3         -1.3053   -2.0078   -0.8721 N.2       1 PAZ        -0.8129 
     15 N4         -0.1931    0.0118   -0.2692 N.pl3     1 PAZ        -0.6753 
     16 C12        -0.3798   -0.3454    1.1426 C.3       1 PAZ         0.2106 
     17 C13         0.1828    1.3435   -0.5930 C.ar      1 PAZ         0.1460 
     18 C14         1.3995    1.8381   -0.0738 C.ar      1 PAZ        -0.2289 
     19 C15         1.6762    3.1638   -0.4555 C.ar      1 PAZ         0.3735 
     20 N5          2.7223    3.9554   -0.1597 N.pl3     1 PAZ        -0.5266 
     21 N6          2.4617    5.1160   -0.7922 N.pl3     1 PAZ         0.1500 
     22 C16         1.2922    5.1333   -1.4947 C.ar      1 PAZ        -0.1003 
     23 C17         0.7588    3.8908   -1.3001 C.ar      1 PAZ        -0.2201 
     24 C18        -0.4429    3.4337   -1.8261 C.ar      1 PAZ        -0.0538 
     25 C19        -0.6938    2.1056   -1.4280 C.ar      1 PAZ        -0.1506 
     26 C20         0.8319    6.3111   -2.2544 C.3       1 PAZ        -0.0311 
     27 C21         3.4106    6.1999   -0.6770 C.3       1 PAZ         0.0270 
     28 S1         -5.1346   -2.0382    2.3665 S.o2      1 PAZ         1.5219 
     29 O1         -6.5791   -1.9798    2.2028 O.2       1 PAZ        -0.6587 
     30 O2         -4.5562   -2.0912    3.7006 O.2       1 PAZ        -0.6587 
     31 N7         -4.4270   -0.7409    1.5104 N.pl3     1 PAZ        -1.0249 
     32 H1         -6.0498   -4.0562    3.4481 H         1 PAZ         0.0577 
     33 H2         -5.2051   -5.6217    3.6976 H         1 PAZ         0.0577 
     34 H3         -6.6474   -5.5395    2.6300 H         1 PAZ         0.0577 
     35 H4         -3.4466   -2.1458    0.0780 H         1 PAZ         0.1592 
     36 H5         -3.1715   -6.3842   -0.6197 H         1 PAZ         0.1647 
     37 H6         -4.6305   -6.8044    1.3188 H         1 PAZ         0.1405 
     38 H7         -1.0308   -3.9012   -3.6612 H         1 PAZ         0.4556 
     39 H8          0.5411   -2.1128   -4.1104 H         1 PAZ         0.0262 
     40 H9          0.9710   -0.3178   -2.6078 H         1 PAZ         0.1643 
     41 H10        -0.1858    0.5354    1.7724 H         1 PAZ         0.0492 
     42 H11         0.3194   -1.1505    1.4127 H         1 PAZ         0.0492 
     43 H12        -1.4129   -0.6887    1.3004 H         1 PAZ         0.0492 
     44 H13         1.9705    1.2548    0.5039 H         1 PAZ         0.1521 
     45 H14        -1.0978    3.9127   -2.4106 H         1 PAZ         0.1346 
     46 H15        -1.5265    1.6418   -1.7306 H         1 PAZ         0.1435 
     47 H16        -0.1318    6.0845   -2.7339 H         1 PAZ         0.0550 
     48 H17         1.5748    6.5633   -3.0254 H         1 PAZ         0.0550 
     49 H18         0.7096    7.1638   -1.5703 H         1 PAZ         0.0550 
     50 H19         3.0481    7.0669   -1.2488 H         1 PAZ         0.0651 
     51 H20         4.3842    5.8788   -1.0758 H         1 PAZ         0.0651 
     52 H21         3.5218    6.4790    0.3811 H         1 PAZ         0.0651 
     53 H22        -4.7195    0.2104    1.9787 H         1 PAZ         0.4460 
     54 H23        -4.7740   -0.7578    0.4667 H         1 PAZ         0.4460 
     55 H55         3.5348    3.5776    0.4785 H         1 PAZ         0.0000 
@<TRIPOS>BOND
     1    1    2 1    
     2    1   32 1    
     3    1   33 1    
     4    1   34 1    
     5    2    7 ar   
     6    2    3 ar   
     7    3    4 ar   
     8    3   28 1    
     9    4    5 ar   
    10    4   35 1    
    11    5    6 ar   
    12    5    8 1    
    13    6    7 ar   
    14    6   36 1    
    15    7   37 1    
    16    8    9 2    
    17    9   14 ar   
    18    9   10 ar   
    19   10   38 1    
    20   10   11 ar   
    21   11   12 ar   
    22   11   39 1    
    23   12   40 1    
    24   12   13 ar   
    25   13   15 1    
    26   13   14 ar   
    27   15   16 1    
    28   15   17 1    
    29   16   41 1    
    30   16   42 1    
    31   16   43 1    
    32   17   25 ar   
    33   17   18 ar   
    34   18   19 ar   
    35   18   44 1    
    36   19   23 ar   
    37   19   20 ar   
    38   20   21 1    
    39   20   55 1    
    40   21   22 ar   
    41   21   27 1    
    42   22   23 ar   
    43   22   26 1    
    44   23   24 ar   
    45   24   25 ar   
    46   24   45 1    
    47   25   46 1    
    48   26   47 1    
    49   26   48 1    
    50   26   49 1    
    51   27   50 1    
    52   27   51 1    
    53   27   52 1    
    54   28   29 2    
    55   28   30 2    
    56   28   31 1    
    57   31   53 1    
    58   31   54 1    
@<TRIPOS>SUBSTRUCTURE
     1 PAZ         1 GROUP             0       ****    0 ROOT    
@<TRIPOS>MOLECULE
5-[[4-[(2,3-dimethylindazol-6-yl)-methyl-amino]pyrimidin-2-yl]amino]-2-methyl-benzenesulfonamide
56   59    1
SMALL
USER_CHARGES


@<TRIPOS>ATOM
      1 C1         -5.7603   -4.9945    2.9658 C.3       1 PAZ        -0.0734 
      2 C2         -4.8761   -4.7061    1.7969 C.ar      1 PAZ         0.0254 
      3 C3         -4.5403   -3.3984    1.4463 C.ar      1 PAZ        -0.3573 
      4 C4         -3.7122   -3.1613    0.3491 C.ar      1 PAZ        -0.0858 
      5 C5         -3.2200   -4.2319   -0.3975 C.ar      1 PAZ         0.1399 
      6 C6         -3.5560   -5.5395   -0.0468 C.ar      1 PAZ        -0.0678 
      7 C7         -4.3840   -5.7766    1.0503 C.ar      1 PAZ        -0.1454 
      8 N1         -2.3835   -3.9928   -1.5060 N.pl3     1 PAZ        -0.7355 
      9 C8         -1.4572   -2.9696   -1.8025 C.ar      1 PAZ         0.9123 
     10 N2         -0.8196   -3.0596   -2.9852 N.ar      1 PAZ        -0.7691 
     11 C9          0.0569   -2.0652   -3.2367 C.ar      1 PAZ         0.4773 
     12 C10         0.3027   -1.0219   -2.3675 C.ar      1 PAZ        -0.4560 
     13 C11        -0.4151   -1.0447   -1.1892 C.ar      1 PAZ         0.7348 
     14 N3         -1.3067   -2.0068   -0.8730 N.pl3     1 PAZ        -0.8129 
     15 N4         -0.1931    0.0118   -0.2692 N.pl3     1 PAZ        -0.6753 
     16 C12        -0.3798   -0.3454    1.1426 C.3       1 PAZ         0.2106 
     17 C13         0.4077    1.2666   -0.5590 C.ar      1 PAZ         0.1460 
     18 C14         1.5870    1.6175    0.1342 C.ar      1 PAZ        -0.2289 
     19 C15         2.0987    2.8771   -0.2282 C.ar      1 PAZ         0.3735 
     20 N5          3.1862    3.5350    0.2111 N.pl3     1 PAZ        -0.5266 
     21 N6          3.1877    4.6915   -0.4799 N.pl3     1 PAZ         0.1500 
     22 C16         2.1531    4.8334   -1.3580 C.ar      1 PAZ        -0.1003 
     23 C17         1.4303    3.6821   -1.2225 C.ar      1 PAZ        -0.2201 
     24 C18         0.2718    3.3661   -1.9209 C.ar      1 PAZ        -0.0538 
     25 C19        -0.2175    2.1015   -1.5382 C.ar      1 PAZ        -0.1506 
     26 C20         1.9811    6.0279   -2.2064 C.3       1 PAZ        -0.0311 
     27 C21         4.2480    5.6440   -0.2407 C.3       1 PAZ         0.0270 
     28 S1         -5.1401   -2.0322    2.3609 S.o2      1 PAZ         1.5219 
     29 O1         -6.5843   -1.9722    2.1954 O.2       1 PAZ        -0.6587 
     30 O2         -4.5634   -2.0854    3.6957 O.2       1 PAZ        -0.6587 
     31 N7         -4.4300   -0.7359    1.5053 N.pl3     1 PAZ        -1.0249 
     32 H1         -6.0588   -4.0488    3.4418 H         1 PAZ         0.0577 
     33 H2         -5.2161   -5.6152    3.6928 H         1 PAZ         0.0577 
     34 H3         -6.6570   -5.5318    2.6235 H         1 PAZ         0.0577 
     35 H4         -3.4494   -2.1422    0.0745 H         1 PAZ         0.1592 
     36 H5         -3.1780   -6.3811   -0.6217 H         1 PAZ         0.1647 
     37 H6         -4.6398   -6.7992    1.3151 H         1 PAZ         0.1405 
     38 H7         -2.3859   -4.6895   -2.3572 H         1 PAZ         0.4556 
     39 H8          0.5726   -2.1325   -4.1888 H         1 PAZ         0.0262 
     40 H9          1.0141   -0.2418   -2.6085 H         1 PAZ         0.1643 
     41 H10        -0.1858    0.5354    1.7724 H         1 PAZ         0.0492 
     42 H11         0.3194   -1.1505    1.4127 H         1 PAZ         0.0492 
     43 H12        -1.4129   -0.6887    1.3004 H         1 PAZ         0.0492 
     44 H13         2.0524    0.9766    0.8724 H         1 PAZ         0.1521 
     45 H14        -0.2141    3.9853   -2.6618 H         1 PAZ         0.1346 
     46 H15        -1.1283    1.7449   -2.0210 H         1 PAZ         0.1435 
     47 H16         1.0802    5.9105   -2.8265 H         1 PAZ         0.0550 
     48 H17         2.8608    6.1458   -2.8563 H         1 PAZ         0.0550 
     49 H18         1.8741    6.9180   -1.5690 H         1 PAZ         0.0550 
     50 H19         4.1001    6.5259   -0.8814 H         1 PAZ         0.0651 
     51 H20         5.2175    5.1797   -0.4741 H         1 PAZ         0.0651 
     52 H21         4.2334    5.9514    0.8154 H         1 PAZ         0.0651 
     53 H22        -4.7221    0.2159    1.9730 H         1 PAZ         0.4460 
     54 H23        -4.7757   -0.7527    0.4612 H         1 PAZ         0.4460 
     55 H55        -1.8900   -2.0459    0.0588 H         1 PAZ         0.0000 
     56 H56         3.8316    3.0808    0.9773 H         1 PAZ         0.0000 
@<TRIPOS>BOND
     1    1    2 1    
     2    1   32 1    
     3    1   33 1    
     4    1   34 1    
     5    2    7 ar   
     6    2    3 ar   
     7    3    4 ar   
     8    3   28 1    
     9    4    5 ar   
    10    4   35 1    
    11    5    6 ar   
    12    5    8 1    
    13    6    7 ar   
    14    6   36 1    
    15    7   37 1    
    16    8    9 1    
    17    8   38 1    
    18    9   14 ar   
    19    9   10 ar   
    20   10   11 ar   
    21   11   12 ar   
    22   11   39 1    
    23   12   13 ar   
    24   12   40 1    
    25   13   14 ar   
    26   13   15 1    
    27   14   55 1    
    28   15   16 1    
    29   15   17 1    
    30   16   41 1    
    31   16   42 1    
    32   16   43 1    
    33   17   25 ar   
    34   17   18 ar   
    35   18   19 ar   
    36   18   44 1    
    37   19   23 ar   
    38   19   20 ar   
    39   20   21 1    
    40   20   56 1    
    41   21   22 ar   
    42   21   27 1    
    43   22   23 ar   
    44   22   26 1    
    45   23   24 ar   
    46   24   25 ar   
    47   24   45 1    
    48   25   46 1    
    49   26   47 1    
    50   26   48 1    
    51   26   49 1    
    52   27   50 1    
    53   27   51 1    
    54   27   52 1    
    55   28   29 2    
    56   28   30 2    
    57   28   31 1    
    58   31   53 1    
    59   31   54 1    
@<TRIPOS>SUBSTRUCTURE
     1 PAZ         1 GROUP             0       ****    0 ROOT    
@<TRIPOS>MOLECULE
5-[[4-[(2,3-dimethylindazol-6-yl)-methyl-amino]pyrimidin-2-yl]amino]-2-methyl-benzenesulfonamide
54   57    1
SMALL
USER_CHARGES


@<TRIPOS>ATOM
      1 C1         -5.7603   -4.9945    2.9658 C.3       1 PAZ        -0.0734 
      2 C2         -4.8761   -4.7061    1.7969 C.ar      1 PAZ         0.0254 
      3 C3         -4.5403   -3.3984    1.4463 C.ar      1 PAZ        -0.3573 
      4 C4         -3.7122   -3.1613    0.3491 C.ar      1 PAZ        -0.0858 
      5 C5         -3.2200   -4.2319   -0.3975 C.ar      1 PAZ         0.1399 
      6 C6         -3.5560   -5.5395   -0.0468 C.ar      1 PAZ        -0.0678 
      7 C7         -4.3840   -5.7766    1.0503 C.ar      1 PAZ        -0.1454 
      8 N1         -2.3835   -3.9928   -1.5060 N.2       1 PAZ        -0.7355 
      9 C8         -1.4572   -2.9696   -1.8025 C.ar      1 PAZ         0.9123 
     10 N2         -0.8196   -3.0596   -2.9852 N.2       1 PAZ        -0.7691 
     11 C9          0.0569   -2.0652   -3.2367 C.ar      1 PAZ         0.4773 
     12 C10         0.3027   -1.0219   -2.3675 C.ar      1 PAZ        -0.4560 
     13 C11        -0.4151   -1.0447   -1.1892 C.ar      1 PAZ         0.7348 
     14 N3         -1.3067   -2.0068   -0.8730 N.pl3     1 PAZ        -0.8129 
     15 N4         -0.1931    0.0118   -0.2692 N.pl3     1 PAZ        -0.6753 
     16 C12        -0.3798   -0.3454    1.1426 C.3       1 PAZ         0.2106 
     17 C13         0.4077    1.2666   -0.5590 C.ar      1 PAZ         0.1460 
     18 C14         1.5870    1.6175    0.1342 C.ar      1 PAZ        -0.2289 
     19 C15         2.0987    2.8771   -0.2282 C.ar      1 PAZ         0.3735 
     20 N5          3.1862    3.5350    0.2111 N.2       1 PAZ        -0.5266 
     21 N6          3.1877    4.6915   -0.4799 N.pl3     1 PAZ         0.1500 
     22 C16         2.1531    4.8334   -1.3580 C.ar      1 PAZ        -0.1003 
     23 C17         1.4303    3.6821   -1.2225 C.ar      1 PAZ        -0.2201 
     24 C18         0.2718    3.3661   -1.9209 C.ar      1 PAZ        -0.0538 
     25 C19        -0.2175    2.1015   -1.5382 C.ar      1 PAZ        -0.1506 
     26 C20         1.9811    6.0279   -2.2064 C.3       1 PAZ        -0.0311 
     27 C21         4.2480    5.6440   -0.2407 C.3       1 PAZ         0.0270 
     28 S1         -5.1401   -2.0322    2.3609 S.o2      1 PAZ         1.5219 
     29 O1         -6.5843   -1.9722    2.1954 O.2       1 PAZ        -0.6587 
     30 O2         -4.5634   -2.0854    3.6957 O.2       1 PAZ        -0.6587 
     31 N7         -4.4300   -0.7359    1.5053 N.pl3     1 PAZ        -1.0249 
     32 H1         -6.0588   -4.0488    3.4418 H         1 PAZ         0.0577 
     33 H2         -5.2161   -5.6152    3.6928 H         1 PAZ         0.0577 
     34 H3         -6.6570   -5.5318    2.6235 H         1 PAZ         0.0577 
     35 H4         -3.4494   -2.1422    0.0745 H         1 PAZ         0.1592 
     36 H5         -3.1780   -6.3811   -0.6217 H         1 PAZ         0.1647 
     37 H6         -4.6398   -6.7992    1.3151 H         1 PAZ         0.1405 
     38 H8          0.5726   -2.1325   -4.1888 H         1 PAZ         0.0262 
     39 H9          1.0141   -0.2418   -2.6085 H         1 PAZ         0.1643 
     40 H10        -0.1858    0.5354    1.7724 H         1 PAZ         0.0492 
     41 H11         0.3194   -1.1505    1.4127 H         1 PAZ         0.0492 
     42 H12        -1.4129   -0.6887    1.3004 H         1 PAZ         0.0492 
     43 H13         2.0524    0.9766    0.8724 H         1 PAZ         0.1521 
     44 H14        -0.2141    3.9853   -2.6618 H         1 PAZ         0.1346 
     45 H15        -1.1283    1.7449   -2.0210 H         1 PAZ         0.1435 
     46 H16         1.0802    5.9105   -2.8265 H         1 PAZ         0.0550 
     47 H17         2.8608    6.1458   -2.8563 H         1 PAZ         0.0550 
     48 H18         1.8741    6.9180   -1.5690 H         1 PAZ         0.0550 
     49 H19         4.1001    6.5259   -0.8814 H         1 PAZ         0.0651 
     50 H20         5.2175    5.1797   -0.4741 H         1 PAZ         0.0651 
     51 H21         4.2334    5.9514    0.8154 H         1 PAZ         0.0651 
     52 H22        -4.7221    0.2159    1.9730 H         1 PAZ         0.4460 
     53 H23        -4.7757   -0.7527    0.4612 H         1 PAZ         0.4460 
     54 H54        -1.8900   -2.0459    0.0588 H         1 PAZ         0.0000 
@<TRIPOS>BOND
     1    1    2 1    
     2    1   32 1    
     3    1   33 1    
     4    1   34 1    
     5    2    7 ar   
     6    2    3 ar   
     7    3    4 ar   
     8    3   28 1    
     9    4    5 ar   
    10    4   35 1    
    11    5    6 ar   
    12    5    8 1    
    13    6    7 ar   
    14    6   36 1    
    15    7   37 1    
    16    8    9 2    
    17    9   14 ar   
    18    9   10 ar   
    19   10   11 ar   
    20   11   12 ar   
    21   11   38 1    
    22   12   13 ar   
    23   12   39 1    
    24   13   14 ar   
    25   13   15 1    
    26   14   54 1    
    27   15   16 1    
    28   15   17 1    
    29   16   40 1    
    30   16   41 1    
    31   16   42 1    
    32   17   25 ar   
    33   17   18 ar   
    34   18   19 ar   
    35   18   43 1    
    36   19   23 ar   
    37   19   20 ar   
    38   20   21 ar   
    39   21   22 ar   
    40   21   27 1    
    41   22   23 ar   
    42   22   26 1    
    43   23   24 ar   
    44   24   25 ar   
    45   24   44 1    
    46   25   45 1    
    47   26   46 1    
    48   26   47 1    
    49   26   48 1    
    50   27   49 1    
    51   27   50 1    
    52   27   51 1    
    53   28   29 2    
    54   28   30 2    
    55   28   31 1    
    56   31   52 1    
    57   31   53 1    
@<TRIPOS>SUBSTRUCTURE
     1 PAZ         1 GROUP             0       ****    0 ROOT    
@<TRIPOS>MOLECULE
5-[[4-[(2,3-dimethylindazol-6-yl)-methyl-amino]pyrimidin-2-yl]amino]-2-methyl-benzenesulfonamide
54   57    1
SMALL
USER_CHARGES


@<TRIPOS>ATOM
      1 C1         -4.0998   -8.6170   -4.3475 C.3       1 PAZ        -0.0734 
      2 C2         -3.6261   -7.4055   -3.6133 C.ar      1 PAZ         0.0254 
      3 C3         -2.3323   -6.9130   -3.7843 C.ar      1 PAZ        -0.3573 
      4 C4         -1.9194   -5.7793   -3.0844 C.ar      1 PAZ        -0.0858 
      5 C5         -2.8003   -5.1381   -2.2133 C.ar      1 PAZ         0.1399 
      6 C6         -4.0940   -5.6307   -2.0424 C.ar      1 PAZ        -0.0678 
      7 C7         -4.5069   -6.7643   -2.7423 C.ar      1 PAZ        -0.1454 
      8 N1         -2.3835   -3.9928   -1.5060 N.2       1 PAZ        -0.7355 
      9 C8         -1.4572   -2.9696   -1.8025 C.ar      1 PAZ         0.9123 
     10 N2         -0.8184   -3.0605   -2.9845 N.2       1 PAZ        -0.7691 
     11 C9          0.0580   -2.0660   -3.2360 C.ar      1 PAZ         0.4773 
     12 C10         0.3027   -1.0219   -2.3675 C.ar      1 PAZ        -0.4560 
     13 C11        -0.4162   -1.0439   -1.1899 C.ar      1 PAZ         0.7348 
     14 N3         -1.3067   -2.0068   -0.8730 N.pl3     1 PAZ        -0.8129 
     15 N4         -0.1938    0.0123   -0.2696 N.pl3     1 PAZ        -0.6753 
     16 C12        -0.3801   -0.3453    1.1421 C.3       1 PAZ         0.2106 
     17 C13         0.4071    1.2671   -0.5592 C.ar      1 PAZ         0.1460 
     18 C14         1.5866    1.6177    0.1337 C.ar      1 PAZ        -0.2289 
     19 C15         2.0984    2.8773   -0.2285 C.ar      1 PAZ         0.3735 
     20 N5          3.1861    3.5349    0.2107 N.2       1 PAZ        -0.5266 
     21 N6          3.1876    4.6916   -0.4799 N.pl3     1 PAZ         0.1500 
     22 C16         2.1527    4.8339   -1.3577 C.ar      1 PAZ        -0.1003 
     23 C17         1.4298    3.6827   -1.2223 C.ar      1 PAZ        -0.2201 
     24 C18         0.2711    3.3671   -1.9205 C.ar      1 PAZ        -0.0538 
     25 C19        -0.2183    2.1024   -1.5380 C.ar      1 PAZ        -0.1506 
     26 C20         1.9806    6.0287   -2.2057 C.3       1 PAZ        -0.0311 
     27 C21         4.2481    5.6439   -0.2408 C.3       1 PAZ         0.0270 
     28 S1         -1.2016   -7.6928   -4.8689 S.o2      1 PAZ         1.5219 
     29 O1         -0.8983   -9.0130   -4.3382 O.2       1 PAZ        -0.6587 
     30 O2         -1.7002   -7.5533   -6.2287 O.2       1 PAZ        -0.6587 
     31 N7          0.1686   -6.6912   -4.6792 N.pl3     1 PAZ        -1.0249 
     32 H1         -3.2901   -8.9980   -4.9872 H         1 PAZ         0.0577 
     33 H2         -4.9662   -8.3522   -4.9714 H         1 PAZ         0.0577 
     34 H3         -4.3919   -9.3929   -3.6247 H         1 PAZ         0.0577 
     35 H4         -0.9108   -5.3941   -3.2167 H         1 PAZ         0.1592 
     36 H5         -4.7886   -5.1388   -1.3661 H         1 PAZ         0.1647 
     37 H6         -5.5170   -7.1401   -2.6019 H         1 PAZ         0.1405 
     38 H8          0.5434   -2.1144   -4.1090 H         1 PAZ         0.0262 
     39 H9          0.9655   -0.3138   -2.6110 H         1 PAZ         0.1643 
     40 H10        -0.1859    0.5353    1.7721 H         1 PAZ         0.0492 
     41 H11         0.3191   -1.1505    1.4117 H         1 PAZ         0.0492 
     42 H12        -1.4132   -0.6885    1.3001 H         1 PAZ         0.0492 
     43 H13         1.9768    0.9891    0.8065 H         1 PAZ         0.1521 
     44 H14        -0.2146    3.9032   -2.6109 H         1 PAZ         0.1346 
     45 H15        -1.0509    1.7407   -1.9575 H         1 PAZ         0.1435 
     46 H16         1.0795    5.9116   -2.8256 H         1 PAZ         0.0550 
     47 H17         2.8601    6.1467   -2.8558 H         1 PAZ         0.0550 
     48 H18         1.8740    6.9186   -1.5680 H         1 PAZ         0.0550 
     49 H19         4.1001    6.5260   -0.8811 H         1 PAZ         0.0651 
     50 H20         5.2174    5.1795   -0.4746 H         1 PAZ         0.0651 
     51 H21         4.2338    5.9510    0.8154 H         1 PAZ         0.0651 
     52 H22         0.9856   -7.0632   -5.3149 H         1 PAZ         0.4460 
     53 H23         0.4885   -6.7029   -3.6268 H         1 PAZ         0.4460 
     54 H54        -1.8448   -1.9645    0.0855 H         1 PAZ         0.0000 
@<TRIPOS>BOND
     1    1    2 1    
     2    1   32 1    
     3    1   33 1    
     4    1   34 1    
     5    2    7 ar   
     6    2    3 ar   
     7    3    4 ar   
     8    3   28 1    
     9    4    5 ar   
    10    4   35 1    
    11    5    6 ar   
    12    5    8 1    
    13    6    7 ar   
    14    6   36 1    
    15    7   37 1    
    16    8    9 2    
    17    9   14 ar   
    18    9   10 ar   
    19   10   11 ar   
    20   11   12 ar   
    21   11   38 1    
    22   12   39 1    
    23   12   13 ar   
    24   13   15 1    
    25   13   14 ar   
    26   14   54 1    
    27   15   16 1    
    28   15   17 1    
    29   16   40 1    
    30   16   41 1    
    31   16   42 1    
    32   17   25 ar   
    33   17   18 ar   
    34   18   19 ar   
    35   18   43 1    
    36   19   23 ar   
    37   19   20 ar   
    38   20   21 ar   
    39   21   22 ar   
    40   21   27 1    
    41   22   23 ar   
    42   22   26 1    
    43   23   24 ar   
    44   24   25 ar   
    45   24   44 1    
    46   25   45 1    
    47   26   46 1    
    48   26   47 1    
    49   26   48 1    
    50   27   49 1    
    51   27   50 1    
    52   27   51 1    
    53   28   29 2    
    54   28   30 2    
    55   28   31 1    
    56   31   52 1    
    57   31   53 1    
@<TRIPOS>SUBSTRUCTURE
     1 PAZ         1 GROUP             0       ****    0 ROOT    
@<TRIPOS>MOLECULE
5-[[4-[(2,3-dimethylindazol-6-yl)-methyl-amino]pyrimidin-2-yl]amino]-2-methyl-benzenesulfonamide
53   56    1
SMALL
USER_CHARGES


@<TRIPOS>ATOM
      1 C1         -5.7509   -5.0014    2.9714 C.3       1 PAZ        -0.0734 
      2 C2         -4.8684   -4.7117    1.8015 C.ar      1 PAZ         0.0254 
      3 C3         -4.5345   -3.4035    1.4508 C.ar      1 PAZ        -0.3573 
      4 C4         -3.7080   -3.1653    0.3526 C.ar      1 PAZ        -0.0858 
      5 C5         -3.2156   -4.2351   -0.3949 C.ar      1 PAZ         0.1399 
      6 C6         -3.5497   -5.5432   -0.0441 C.ar      1 PAZ        -0.0678 
      7 C7         -4.3761   -5.7815    1.0540 C.ar      1 PAZ        -0.1454 
      8 N1         -2.3807   -3.9948   -1.5043 N.2       1 PAZ        -0.7355 
      9 C8         -1.4559   -2.9706   -1.8017 C.ar      1 PAZ         0.9123 
     10 N2         -0.8185   -3.0604   -2.9845 N.pl3     1 PAZ        -0.7691 
     11 C9          0.0579   -2.0660   -3.2361 C.ar      1 PAZ         0.4773 
     12 C10         0.3053   -1.0238   -2.3659 C.ar      1 PAZ        -0.4560 
     13 C11        -0.4151   -1.0447   -1.1892 C.ar      1 PAZ         0.7348 
     14 N3         -1.3053   -2.0078   -0.8721 N.2       1 PAZ        -0.8129 
     15 N4         -0.1931    0.0118   -0.2692 N.pl3     1 PAZ        -0.6753 
     16 C12        -0.3798   -0.3454    1.1426 C.3       1 PAZ         0.2106 
     17 C13         0.1828    1.3435   -0.5930 C.ar      1 PAZ         0.1460 
     18 C14         1.3995    1.8381   -0.0738 C.ar      1 PAZ        -0.2289 
     19 C15         1.6762    3.1638   -0.4555 C.ar      1 PAZ         0.3735 
     20 N5          2.7223    3.9554   -0.1597 N.2       1 PAZ        -0.5266 
     21 N6          2.4617    5.1160   -0.7922 N.pl3     1 PAZ         0.1500 
     22 C16         1.2922    5.1333   -1.4947 C.ar      1 PAZ        -0.1003 
     23 C17         0.7588    3.8908   -1.3001 C.ar      1 PAZ        -0.2201 
     24 C18        -0.4429    3.4337   -1.8261 C.ar      1 PAZ        -0.0538 
     25 C19        -0.6938    2.1056   -1.4280 C.ar      1 PAZ        -0.1506 
     26 C20         0.8319    6.3111   -2.2544 C.3       1 PAZ        -0.0311 
     27 C21         3.4106    6.1999   -0.6770 C.3       1 PAZ         0.0270 
     28 S1         -5.1346   -2.0382    2.3665 S.o2      1 PAZ         1.5219 
     29 O1         -6.5791   -1.9798    2.2028 O.2       1 PAZ        -0.6587 
     30 O2         -4.5562   -2.0912    3.7006 O.2       1 PAZ        -0.6587 
     31 N7         -4.4270   -0.7409    1.5104 N.2       1 PAZ        -1.0249 
     32 H1         -6.0498   -4.0562    3.4481 H         1 PAZ         0.0577 
     33 H2         -5.2051   -5.6217    3.6976 H         1 PAZ         0.0577 
     34 H3         -6.6474   -5.5395    2.6300 H         1 PAZ         0.0577 
     35 H4         -3.4466   -2.1458    0.0780 H         1 PAZ         0.1592 
     36 H5         -3.1715   -6.3842   -0.6197 H         1 PAZ         0.1647 
     37 H6         -4.6305   -6.8044    1.3188 H         1 PAZ         0.1405 
     38 H7         -1.0308   -3.9012   -3.6612 H         1 PAZ         0.4556 
     39 H8          0.5411   -2.1128   -4.1104 H         1 PAZ         0.0262 
     40 H9          0.9710   -0.3178   -2.6078 H         1 PAZ         0.1643 
     41 H10        -0.1858    0.5354    1.7724 H         1 PAZ         0.0492 
     42 H11         0.3194   -1.1505    1.4127 H         1 PAZ         0.0492 
     43 H12        -1.4129   -0.6887    1.3004 H         1 PAZ         0.0492 
     44 H13         1.9705    1.2548    0.5039 H         1 PAZ         0.1521 
     45 H14        -1.0978    3.9127   -2.4106 H         1 PAZ         0.1346 
     46 H15        -1.5265    1.6418   -1.7306 H         1 PAZ         0.1435 
     47 H16        -0.1318    6.0845   -2.7339 H         1 PAZ         0.0550 
     48 H17         1.5748    6.5633   -3.0254 H         1 PAZ         0.0550 
     49 H18         0.7096    7.1638   -1.5703 H         1 PAZ         0.0550 
     50 H19         3.0481    7.0669   -1.2488 H         1 PAZ         0.0651 
     51 H20         4.3842    5.8788   -1.0758 H         1 PAZ         0.0651 
     52 H21         3.5218    6.4790    0.3811 H         1 PAZ         0.0651 
     53 H23        -4.6074    0.2949    1.8337 H         1 PAZ         0.4460 
@<TRIPOS>BOND
     1    1    2 1    
     2    1   32 1    
     3    1   33 1    
     4    1   34 1    
     5    2    7 ar   
     6    2    3 ar   
     7    3    4 ar   
     8    3   28 1    
     9    4    5 ar   
    10    4   35 1    
    11    5    6 ar   
    12    5    8 1    
    13    6    7 ar   
    14    6   36 1    
    15    7   37 1    
    16    8    9 2    
    17    9   14 ar   
    18    9   10 ar   
    19   10   38 1    
    20   10   11 ar   
    21   11   12 ar   
    22   11   39 1    
    23   12   40 1    
    24   12   13 ar   
    25   13   15 1    
    26   13   14 ar   
    27   15   16 1    
    28   15   17 1    
    29   16   41 1    
    30   16   42 1    
    31   16   43 1    
    32   17   25 ar   
    33   17   18 ar   
    34   18   19 ar   
    35   18   44 1    
    36   19   23 ar   
    37   19   20 ar   
    38   20   21 ar   
    39   21   22 ar   
    40   21   27 1    
    41   22   23 ar   
    42   22   26 1    
    43   23   24 ar   
    44   24   25 ar   
    45   24   45 1    
    46   25   46 1    
    47   26   47 1    
    48   26   48 1    
    49   26   49 1    
    50   27   50 1    
    51   27   51 1    
    52   27   52 1    
    53   28   29 2    
    54   28   30 2    
    55   28   31 1    
    56   31   53 1    
@<TRIPOS>SUBSTRUCTURE
     1 PAZ         1 GROUP             0       ****    0 ROOT    
