5-[[4-[(2,3-dimethylindazol-6-yl)-methyl-amino]pyrimidin-2-yl]amino]-2-methyl-benzenesulfonamide
                    3D
 Structure written by MMmdl.
 54 57  0  0  1  0            999 V2000
   -5.7603   -4.9945    2.9658 C   0  0  0  0  0  0
   -4.8761   -4.7061    1.7969 C   0  0  0  0  0  0
   -4.5403   -3.3984    1.4463 C   0  0  0  0  0  0
   -3.7122   -3.1613    0.3491 C   0  0  0  0  0  0
   -3.2200   -4.2319   -0.3975 C   0  0  0  0  0  0
   -3.5560   -5.5395   -0.0468 C   0  0  0  0  0  0
   -4.3840   -5.7766    1.0503 C   0  0  0  0  0  0
   -2.3835   -3.9928   -1.5060 N   0  0  0  0  0  0
   -1.4572   -2.9696   -1.8025 C   0  0  0  0  0  0
   -0.8196   -3.0596   -2.9852 N   0  0  0  0  0  0
    0.0569   -2.0652   -3.2367 C   0  0  0  0  0  0
    0.3027   -1.0219   -2.3675 C   0  0  0  0  0  0
   -0.4151   -1.0447   -1.1892 C   0  0  0  0  0  0
   -1.3067   -2.0068   -0.8730 N   0  0  0  0  0  0
   -0.1931    0.0118   -0.2692 N   0  0  0  0  0  0
   -0.3798   -0.3454    1.1426 C   0  0  0  0  0  0
    0.4077    1.2666   -0.5590 C   0  0  0  0  0  0
    1.5870    1.6175    0.1342 C   0  0  0  0  0  0
    2.0987    2.8771   -0.2282 C   0  0  0  0  0  0
    3.1862    3.5350    0.2111 N   0  0  0  0  0  0
    3.1877    4.6915   -0.4799 N   0  0  0  0  0  0
    2.1531    4.8334   -1.3580 C   0  0  0  0  0  0
    1.4303    3.6821   -1.2225 C   0  0  0  0  0  0
    0.2718    3.3661   -1.9208 C   0  0  0  0  0  0
   -0.2175    2.1015   -1.5382 C   0  0  0  0  0  0
    1.9811    6.0279   -2.2064 C   0  0  0  0  0  0
    4.2480    5.6440   -0.2407 C   0  0  0  0  0  0
   -5.1401   -2.0322    2.3609 S   0  0  0  0  0  0
   -6.5843   -1.9722    2.1954 O   0  0  0  0  0  0
   -4.5634   -2.0854    3.6957 O   0  0  0  0  0  0
   -4.4300   -0.7359    1.5053 N   0  0  0  0  0  0
   -6.0588   -4.0488    3.4418 H   0  0  0  0  0  0
   -5.2161   -5.6152    3.6928 H   0  0  0  0  0  0
   -6.6570   -5.5318    2.6235 H   0  0  0  0  0  0
   -3.4494   -2.1422    0.0745 H   0  0  0  0  0  0
   -3.1780   -6.3811   -0.6217 H   0  0  0  0  0  0
   -4.6398   -6.7992    1.3151 H   0  0  0  0  0  0
   -2.3859   -4.6895   -2.3572 H   0  0  0  0  0  0
    0.5726   -2.1325   -4.1888 H   0  0  0  0  0  0
    1.0141   -0.2418   -2.6085 H   0  0  0  0  0  0
   -0.1858    0.5354    1.7724 H   0  0  0  0  0  0
    0.3194   -1.1505    1.4127 H   0  0  0  0  0  0
   -1.4129   -0.6887    1.3004 H   0  0  0  0  0  0
    2.0524    0.9766    0.8724 H   0  0  0  0  0  0
   -0.2141    3.9853   -2.6618 H   0  0  0  0  0  0
   -1.1283    1.7449   -2.0210 H   0  0  0  0  0  0
    1.0802    5.9105   -2.8265 H   0  0  0  0  0  0
    2.8608    6.1458   -2.8563 H   0  0  0  0  0  0
    1.8741    6.9180   -1.5690 H   0  0  0  0  0  0
    4.1001    6.5259   -0.8814 H   0  0  0  0  0  0
    5.2175    5.1797   -0.4741 H   0  0  0  0  0  0
    4.2334    5.9514    0.8154 H   0  0  0  0  0  0
   -4.7221    0.2159    1.9730 H   0  0  0  0  0  0
   -4.7757   -0.7527    0.4612 H   0  0  0  0  0  0
  1  2  1  0  0  0
  1 32  1  0  0  0
  1 33  1  0  0  0
  1 34  1  0  0  0
  2  7  2  0  0  0
  2  3  1  0  0  0
  3  4  2  0  0  0
  3 28  1  0  0  0
  4  5  1  0  0  0
  4 35  1  0  0  0
  5  6  2  0  0  0
  5  8  1  0  0  0
  6  7  1  0  0  0
  6 36  1  0  0  0
  7 37  1  0  0  0
  8  9  1  0  0  0
  8 38  1  0  0  0
  9 14  2  0  0  0
  9 10  1  0  0  0
 10 11  2  0  0  0
 11 12  1  0  0  0
 11 39  1  0  0  0
 12 13  2  0  0  0
 12 40  1  0  0  0
 13 14  1  0  0  0
 13 15  1  0  0  0
 15 16  1  0  0  0
 15 17  1  0  0  0
 16 41  1  0  0  0
 16 42  1  0  0  0
 16 43  1  0  0  0
 17 25  1  0  0  0
 17 18  2  0  0  0
 18 19  1  0  0  0
 18 44  1  0  0  0
 19 23  1  0  0  0
 19 20  2  0  0  0
 20 21  1  0  0  0
 21 22  1  0  0  0
 21 27  1  0  0  0
 22 23  2  0  0  0
 22 26  1  0  0  0
 23 24  1  0  0  0
 24 25  2  0  0  0
 24 45  1  0  0  0
 25 46  1  0  0  0
 26 47  1  0  0  0
 26 48  1  0  0  0
 26 49  1  0  0  0
 27 50  1  0  0  0
 27 51  1  0  0  0
 27 52  1  0  0  0
 28 29  2  0  0  0
 28 30  2  0  0  0
 28 31  1  0  0  0
 31 53  1  0  0  0
 31 54  1  0  0  0
M  END
> <s_m_source_file>
/Users/choderaj/github/choderalab/mcce-charges/mcce-charges.jchodera/epik_inhibitors/output/Pazopanib/Pazopanib-input.mol2

> <i_m_source_file_index>
1

> <r_lp_tautomer_probability>
0.99999893677273

> <r_epik_Ionization_Penalty>
  0.0148

> <r_epik_Ionization_Penalty_Charging>
  0.0000

> <r_epik_Ionization_Penalty_Neutral>
  0.0148

> <r_epik_State_Penalty>
  0.0054

> <i_epik_Tot_Q>
0

$$$$
5-[[4-[(2,3-dimethylindazol-6-yl)-methyl-amino]pyrimidin-2-yl]amino]-2-methyl-benzenesulfonamide
                    3D
 Structure written by MMmdl.
 55 58  0  0  1  0            999 V2000
   -5.7603   -4.9945    2.9658 C   0  0  0  0  0  0
   -4.8761   -4.7061    1.7969 C   0  0  0  0  0  0
   -4.5403   -3.3984    1.4463 C   0  0  0  0  0  0
   -3.7122   -3.1613    0.3491 C   0  0  0  0  0  0
   -3.2200   -4.2319   -0.3975 C   0  0  0  0  0  0
   -3.5560   -5.5395   -0.0468 C   0  0  0  0  0  0
   -4.3840   -5.7766    1.0503 C   0  0  0  0  0  0
   -2.3835   -3.9928   -1.5060 N   0  0  0  0  0  0
   -1.4572   -2.9696   -1.8025 C   0  0  0  0  0  0
   -0.8196   -3.0596   -2.9852 N   0  3  0  0  0  0
    0.0569   -2.0652   -3.2367 C   0  0  0  0  0  0
    0.3027   -1.0219   -2.3675 C   0  0  0  0  0  0
   -0.4151   -1.0447   -1.1892 C   0  0  0  0  0  0
   -1.3067   -2.0068   -0.8730 N   0  0  0  0  0  0
   -0.1931    0.0118   -0.2692 N   0  0  0  0  0  0
   -0.3798   -0.3454    1.1426 C   0  0  0  0  0  0
    0.4077    1.2666   -0.5590 C   0  0  0  0  0  0
    1.5870    1.6175    0.1342 C   0  0  0  0  0  0
    2.0987    2.8771   -0.2282 C   0  0  0  0  0  0
    3.1862    3.5350    0.2111 N   0  0  0  0  0  0
    3.1877    4.6915   -0.4799 N   0  0  0  0  0  0
    2.1531    4.8334   -1.3580 C   0  0  0  0  0  0
    1.4303    3.6821   -1.2225 C   0  0  0  0  0  0
    0.2718    3.3661   -1.9208 C   0  0  0  0  0  0
   -0.2175    2.1015   -1.5382 C   0  0  0  0  0  0
    1.9811    6.0279   -2.2064 C   0  0  0  0  0  0
    4.2480    5.6440   -0.2407 C   0  0  0  0  0  0
   -5.1401   -2.0322    2.3609 S   0  0  0  0  0  0
   -6.5843   -1.9722    2.1954 O   0  0  0  0  0  0
   -4.5634   -2.0854    3.6957 O   0  0  0  0  0  0
   -4.4300   -0.7359    1.5053 N   0  0  0  0  0  0
   -6.0588   -4.0488    3.4418 H   0  0  0  0  0  0
   -5.2161   -5.6152    3.6928 H   0  0  0  0  0  0
   -6.6570   -5.5318    2.6235 H   0  0  0  0  0  0
   -3.4494   -2.1422    0.0745 H   0  0  0  0  0  0
   -3.1780   -6.3811   -0.6217 H   0  0  0  0  0  0
   -4.6398   -6.7992    1.3151 H   0  0  0  0  0  0
   -2.3859   -4.6895   -2.3572 H   0  0  0  0  0  0
    0.5726   -2.1325   -4.1888 H   0  0  0  0  0  0
    1.0141   -0.2418   -2.6085 H   0  0  0  0  0  0
   -0.1858    0.5354    1.7724 H   0  0  0  0  0  0
    0.3194   -1.1505    1.4127 H   0  0  0  0  0  0
   -1.4129   -0.6887    1.3004 H   0  0  0  0  0  0
    2.0524    0.9766    0.8724 H   0  0  0  0  0  0
   -0.2141    3.9853   -2.6618 H   0  0  0  0  0  0
   -1.1283    1.7449   -2.0210 H   0  0  0  0  0  0
    1.0802    5.9105   -2.8265 H   0  0  0  0  0  0
    2.8608    6.1458   -2.8563 H   0  0  0  0  0  0
    1.8741    6.9180   -1.5690 H   0  0  0  0  0  0
    4.1001    6.5259   -0.8814 H   0  0  0  0  0  0
    5.2175    5.1797   -0.4741 H   0  0  0  0  0  0
    4.2334    5.9514    0.8154 H   0  0  0  0  0  0
   -4.7221    0.2159    1.9730 H   0  0  0  0  0  0
   -4.7757   -0.7527    0.4612 H   0  0  0  0  0  0
   -1.0319   -3.9005   -3.6619 H   0  0  0  0  0  0
  1  2  1  0  0  0
  1 32  1  0  0  0
  1 33  1  0  0  0
  1 34  1  0  0  0
  2  7  2  0  0  0
  2  3  1  0  0  0
  3  4  2  0  0  0
  3 28  1  0  0  0
  4  5  1  0  0  0
  4 35  1  0  0  0
  5  6  2  0  0  0
  5  8  1  0  0  0
  6  7  1  0  0  0
  6 36  1  0  0  0
  7 37  1  0  0  0
  8  9  1  0  0  0
  8 38  1  0  0  0
  9 14  2  0  0  0
  9 10  1  0  0  0
 10 11  2  0  0  0
 10 55  1  0  0  0
 11 12  1  0  0  0
 11 39  1  0  0  0
 12 13  2  0  0  0
 12 40  1  0  0  0
 13 14  1  0  0  0
 13 15  1  0  0  0
 15 16  1  0  0  0
 15 17  1  0  0  0
 16 41  1  0  0  0
 16 42  1  0  0  0
 16 43  1  0  0  0
 17 25  1  0  0  0
 17 18  2  0  0  0
 18 19  1  0  0  0
 18 44  1  0  0  0
 19 23  1  0  0  0
 19 20  2  0  0  0
 20 21  1  0  0  0
 21 22  1  0  0  0
 21 27  1  0  0  0
 22 23  2  0  0  0
 22 26  1  0  0  0
 23 24  1  0  0  0
 24 25  2  0  0  0
 24 45  1  0  0  0
 25 46  1  0  0  0
 26 47  1  0  0  0
 26 48  1  0  0  0
 26 49  1  0  0  0
 27 50  1  0  0  0
 27 51  1  0  0  0
 27 52  1  0  0  0
 28 29  2  0  0  0
 28 30  2  0  0  0
 28 31  1  0  0  0
 31 53  1  0  0  0
 31 54  1  0  0  0
M  CHG  1  10   1
M  END
> <s_m_source_file>
/Users/choderaj/github/choderalab/mcce-charges/mcce-charges.jchodera/epik_inhibitors/output/Pazopanib/Pazopanib-input.mol2

> <i_m_source_file_index>
1

> <r_lp_tautomer_probability>
0.499942863283806

> <r_epik_Ionization_Penalty>
  3.1651

> <r_epik_Ionization_Penalty_Charging>
  3.1614

> <r_epik_Ionization_Penalty_Neutral>
  0.0038

> <r_epik_State_Penalty>
  2.8393

> <i_epik_Tot_Q>
1

$$$$
5-[[4-[(2,3-dimethylindazol-6-yl)-methyl-amino]pyrimidin-2-yl]amino]-2-methyl-benzenesulfonamide
                    3D
 Structure written by MMmdl.
 55 58  0  0  1  0            999 V2000
   -5.7603   -4.9945    2.9658 C   0  0  0  0  0  0
   -4.8761   -4.7061    1.7969 C   0  0  0  0  0  0
   -4.5403   -3.3984    1.4463 C   0  0  0  0  0  0
   -3.7122   -3.1613    0.3491 C   0  0  0  0  0  0
   -3.2200   -4.2319   -0.3975 C   0  0  0  0  0  0
   -3.5560   -5.5395   -0.0468 C   0  0  0  0  0  0
   -4.3840   -5.7766    1.0503 C   0  0  0  0  0  0
   -2.3835   -3.9928   -1.5060 N   0  0  0  0  0  0
   -1.4572   -2.9696   -1.8025 C   0  0  0  0  0  0
   -0.8196   -3.0596   -2.9852 N   0  0  0  0  0  0
    0.0569   -2.0652   -3.2367 C   0  0  0  0  0  0
    0.3027   -1.0219   -2.3675 C   0  0  0  0  0  0
   -0.4151   -1.0447   -1.1892 C   0  0  0  0  0  0
   -1.3067   -2.0068   -0.8730 N   0  0  0  0  0  0
   -0.1931    0.0118   -0.2692 N   0  0  0  0  0  0
   -0.3798   -0.3454    1.1426 C   0  0  0  0  0  0
    0.4077    1.2666   -0.5590 C   0  0  0  0  0  0
    1.5870    1.6175    0.1342 C   0  0  0  0  0  0
    2.0987    2.8771   -0.2282 C   0  0  0  0  0  0
    3.1862    3.5350    0.2111 N   0  3  0  0  0  0
    3.1877    4.6915   -0.4799 N   0  0  0  0  0  0
    2.1531    4.8334   -1.3580 C   0  0  0  0  0  0
    1.4303    3.6821   -1.2225 C   0  0  0  0  0  0
    0.2718    3.3661   -1.9208 C   0  0  0  0  0  0
   -0.2175    2.1015   -1.5382 C   0  0  0  0  0  0
    1.9811    6.0279   -2.2064 C   0  0  0  0  0  0
    4.2480    5.6440   -0.2407 C   0  0  0  0  0  0
   -5.1401   -2.0322    2.3609 S   0  0  0  0  0  0
   -6.5843   -1.9722    2.1954 O   0  0  0  0  0  0
   -4.5634   -2.0854    3.6957 O   0  0  0  0  0  0
   -4.4300   -0.7359    1.5053 N   0  0  0  0  0  0
   -6.0588   -4.0488    3.4418 H   0  0  0  0  0  0
   -5.2161   -5.6152    3.6928 H   0  0  0  0  0  0
   -6.6570   -5.5318    2.6235 H   0  0  0  0  0  0
   -3.4494   -2.1422    0.0745 H   0  0  0  0  0  0
   -3.1780   -6.3811   -0.6217 H   0  0  0  0  0  0
   -4.6398   -6.7992    1.3151 H   0  0  0  0  0  0
   -2.3859   -4.6895   -2.3572 H   0  0  0  0  0  0
    0.5726   -2.1325   -4.1888 H   0  0  0  0  0  0
    1.0141   -0.2418   -2.6085 H   0  0  0  0  0  0
   -0.1858    0.5354    1.7724 H   0  0  0  0  0  0
    0.3194   -1.1505    1.4127 H   0  0  0  0  0  0
   -1.4129   -0.6887    1.3004 H   0  0  0  0  0  0
    2.0524    0.9766    0.8724 H   0  0  0  0  0  0
   -0.2141    3.9853   -2.6618 H   0  0  0  0  0  0
   -1.1283    1.7449   -2.0210 H   0  0  0  0  0  0
    1.0802    5.9105   -2.8265 H   0  0  0  0  0  0
    2.8608    6.1458   -2.8563 H   0  0  0  0  0  0
    1.8741    6.9180   -1.5690 H   0  0  0  0  0  0
    4.1001    6.5259   -0.8814 H   0  0  0  0  0  0
    5.2175    5.1797   -0.4741 H   0  0  0  0  0  0
    4.2334    5.9514    0.8154 H   0  0  0  0  0  0
   -4.7221    0.2159    1.9730 H   0  0  0  0  0  0
   -4.7757   -0.7527    0.4612 H   0  0  0  0  0  0
    3.8316    3.0808    0.9773 H   0  0  0  0  0  0
  1  2  1  0  0  0
  1 32  1  0  0  0
  1 33  1  0  0  0
  1 34  1  0  0  0
  2  7  2  0  0  0
  2  3  1  0  0  0
  3  4  2  0  0  0
  3 28  1  0  0  0
  4  5  1  0  0  0
  4 35  1  0  0  0
  5  6  2  0  0  0
  5  8  1  0  0  0
  6  7  1  0  0  0
  6 36  1  0  0  0
  7 37  1  0  0  0
  8  9  1  0  0  0
  8 38  1  0  0  0
  9 14  2  0  0  0
  9 10  1  0  0  0
 10 11  2  0  0  0
 11 12  1  0  0  0
 11 39  1  0  0  0
 12 13  2  0  0  0
 12 40  1  0  0  0
 13 14  1  0  0  0
 13 15  1  0  0  0
 15 16  1  0  0  0
 15 17  1  0  0  0
 16 41  1  0  0  0
 16 42  1  0  0  0
 16 43  1  0  0  0
 17 25  1  0  0  0
 17 18  2  0  0  0
 18 19  1  0  0  0
 18 44  1  0  0  0
 19 23  1  0  0  0
 19 20  2  0  0  0
 20 21  1  0  0  0
 20 55  1  0  0  0
 21 22  1  0  0  0
 21 27  1  0  0  0
 22 23  2  0  0  0
 22 26  1  0  0  0
 23 24  1  0  0  0
 24 25  2  0  0  0
 24 45  1  0  0  0
 25 46  1  0  0  0
 26 47  1  0  0  0
 26 48  1  0  0  0
 26 49  1  0  0  0
 27 50  1  0  0  0
 27 51  1  0  0  0
 27 52  1  0  0  0
 28 29  2  0  0  0
 28 30  2  0  0  0
 28 31  1  0  0  0
 31 53  1  0  0  0
 31 54  1  0  0  0
M  CHG  1  20   1
M  END
> <s_m_source_file>
/Users/choderaj/github/choderalab/mcce-charges/mcce-charges.jchodera/epik_inhibitors/output/Pazopanib/Pazopanib-input.mol2

> <i_m_source_file_index>
1

> <r_epik_Ionization_Penalty>
  3.4880

> <r_epik_Ionization_Penalty_Charging>
  3.4749

> <r_epik_Ionization_Penalty_Neutral>
  0.0131

> <r_epik_State_Penalty>
  4.5241

> <i_epik_Tot_Q>
1

$$$$
5-[[4-[(2,3-dimethylindazol-6-yl)-methyl-amino]pyrimidin-2-yl]amino]-2-methyl-benzenesulfonamide
                    3D
 Structure written by MMmdl.
 53 56  0  0  1  0            999 V2000
   -5.7603   -4.9945    2.9658 C   0  0  0  0  0  0
   -4.8761   -4.7061    1.7969 C   0  0  0  0  0  0
   -4.5403   -3.3984    1.4463 C   0  0  0  0  0  0
   -3.7122   -3.1613    0.3491 C   0  0  0  0  0  0
   -3.2200   -4.2319   -0.3975 C   0  0  0  0  0  0
   -3.5560   -5.5395   -0.0468 C   0  0  0  0  0  0
   -4.3840   -5.7766    1.0503 C   0  0  0  0  0  0
   -2.3835   -3.9928   -1.5060 N   0  0  0  0  0  0
   -1.4572   -2.9696   -1.8025 C   0  0  0  0  0  0
   -0.8196   -3.0596   -2.9852 N   0  0  0  0  0  0
    0.0569   -2.0652   -3.2367 C   0  0  0  0  0  0
    0.3027   -1.0219   -2.3675 C   0  0  0  0  0  0
   -0.4151   -1.0447   -1.1892 C   0  0  0  0  0  0
   -1.3067   -2.0068   -0.8730 N   0  0  0  0  0  0
   -0.1931    0.0118   -0.2692 N   0  0  0  0  0  0
   -0.3798   -0.3454    1.1426 C   0  0  0  0  0  0
    0.4077    1.2666   -0.5590 C   0  0  0  0  0  0
    1.5870    1.6175    0.1342 C   0  0  0  0  0  0
    2.0987    2.8771   -0.2282 C   0  0  0  0  0  0
    3.1862    3.5350    0.2111 N   0  0  0  0  0  0
    3.1877    4.6915   -0.4799 N   0  0  0  0  0  0
    2.1531    4.8334   -1.3580 C   0  0  0  0  0  0
    1.4303    3.6821   -1.2225 C   0  0  0  0  0  0
    0.2718    3.3661   -1.9208 C   0  0  0  0  0  0
   -0.2175    2.1015   -1.5382 C   0  0  0  0  0  0
    1.9811    6.0279   -2.2064 C   0  0  0  0  0  0
    4.2480    5.6440   -0.2407 C   0  0  0  0  0  0
   -5.1401   -2.0322    2.3609 S   0  0  0  0  0  0
   -6.5843   -1.9722    2.1954 O   0  0  0  0  0  0
   -4.5634   -2.0854    3.6957 O   0  0  0  0  0  0
   -4.4300   -0.7359    1.5053 N   0  5  0  0  0  0
   -6.0588   -4.0488    3.4418 H   0  0  0  0  0  0
   -5.2161   -5.6152    3.6928 H   0  0  0  0  0  0
   -6.6570   -5.5318    2.6235 H   0  0  0  0  0  0
   -3.4494   -2.1422    0.0745 H   0  0  0  0  0  0
   -3.1780   -6.3811   -0.6217 H   0  0  0  0  0  0
   -4.6398   -6.7992    1.3151 H   0  0  0  0  0  0
   -2.3859   -4.6895   -2.3572 H   0  0  0  0  0  0
    0.5726   -2.1325   -4.1888 H   0  0  0  0  0  0
    1.0141   -0.2418   -2.6085 H   0  0  0  0  0  0
   -0.1858    0.5354    1.7724 H   0  0  0  0  0  0
    0.3194   -1.1505    1.4127 H   0  0  0  0  0  0
   -1.4129   -0.6887    1.3004 H   0  0  0  0  0  0
    2.0524    0.9766    0.8724 H   0  0  0  0  0  0
   -0.2141    3.9853   -2.6618 H   0  0  0  0  0  0
   -1.1283    1.7449   -2.0210 H   0  0  0  0  0  0
    1.0802    5.9105   -2.8265 H   0  0  0  0  0  0
    2.8608    6.1458   -2.8563 H   0  0  0  0  0  0
    1.8741    6.9180   -1.5690 H   0  0  0  0  0  0
    4.1001    6.5259   -0.8814 H   0  0  0  0  0  0
    5.2175    5.1797   -0.4741 H   0  0  0  0  0  0
    4.2334    5.9514    0.8154 H   0  0  0  0  0  0
   -4.6097    0.3002    1.8281 H   0  0  0  0  0  0
  1  2  1  0  0  0
  1 32  1  0  0  0
  1 33  1  0  0  0
  1 34  1  0  0  0
  2  7  2  0  0  0
  2  3  1  0  0  0
  3  4  2  0  0  0
  3 28  1  0  0  0
  4  5  1  0  0  0
  4 35  1  0  0  0
  5  6  2  0  0  0
  5  8  1  0  0  0
  6  7  1  0  0  0
  6 36  1  0  0  0
  7 37  1  0  0  0
  8  9  1  0  0  0
  8 38  1  0  0  0
  9 14  2  0  0  0
  9 10  1  0  0  0
 10 11  2  0  0  0
 11 12  1  0  0  0
 11 39  1  0  0  0
 12 13  2  0  0  0
 12 40  1  0  0  0
 13 14  1  0  0  0
 13 15  1  0  0  0
 15 16  1  0  0  0
 15 17  1  0  0  0
 16 41  1  0  0  0
 16 42  1  0  0  0
 16 43  1  0  0  0
 17 25  1  0  0  0
 17 18  2  0  0  0
 18 19  1  0  0  0
 18 44  1  0  0  0
 19 23  1  0  0  0
 19 20  2  0  0  0
 20 21  1  0  0  0
 21 22  1  0  0  0
 21 27  1  0  0  0
 22 23  2  0  0  0
 22 26  1  0  0  0
 23 24  1  0  0  0
 24 25  2  0  0  0
 24 45  1  0  0  0
 25 46  1  0  0  0
 26 47  1  0  0  0
 26 48  1  0  0  0
 26 49  1  0  0  0
 27 50  1  0  0  0
 27 51  1  0  0  0
 27 52  1  0  0  0
 28 29  2  0  0  0
 28 30  2  0  0  0
 28 31  1  0  0  0
 31 53  1  0  0  0
M  CHG  1  31  -1
M  END
> <s_m_source_file>
/Users/choderaj/github/choderalab/mcce-charges/mcce-charges.jchodera/epik_inhibitors/output/Pazopanib/Pazopanib-input.mol2

> <i_m_source_file_index>
1

> <r_lp_tautomer_probability>
0.99999893677273

> <r_epik_Ionization_Penalty>
  3.9637

> <r_epik_Ionization_Penalty_Charging>
  3.9496

> <r_epik_Ionization_Penalty_Neutral>
  0.0140

> <r_epik_State_Penalty>
  5.0896

> <i_epik_Tot_Q>
-1

$$$$
