@<TRIPOS>MOLECULE
5-[[4-[(2,3-dimethylindazol-6-yl)-methyl-amino]pyrimidin-2-yl]amino]-2-methyl-benzenesulfonamide
   54    57     0     0     0
SMALL
USER_CHARGES

@<TRIPOS>ATOM
      1 C1         -5.7603   -4.9945    2.9658 C.3       1 PAZ        -0.0734
      2 C2         -4.8761   -4.7061    1.7969 C.ar      1 PAZ         0.0253
      3 C3         -4.5403   -3.3984    1.4463 C.ar      1 PAZ        -0.3573
      4 C4         -3.7122   -3.1613    0.3491 C.ar      1 PAZ        -0.0858
      5 C5         -3.2200   -4.2319   -0.3975 C.ar      1 PAZ         0.1399
      6 C6         -3.5560   -5.5395   -0.0468 C.ar      1 PAZ        -0.0678
      7 C7         -4.3840   -5.7766    1.0503 C.ar      1 PAZ        -0.1454
      8 N1         -2.3835   -3.9928   -1.5060 N.pl3     1 PAZ        -0.7355
      9 C8         -1.4572   -2.9696   -1.8025 C.ar      1 PAZ         0.9122
     10 N2         -0.8196   -3.0596   -2.9852 N.ar      1 PAZ        -0.7691
     11 C9          0.0569   -2.0652   -3.2367 C.ar      1 PAZ         0.4775
     12 C10         0.3027   -1.0219   -2.3675 C.ar      1 PAZ        -0.4560
     13 C11        -0.4151   -1.0447   -1.1892 C.ar      1 PAZ         0.7348
     14 N3         -1.3067   -2.0068   -0.8730 N.ar      1 PAZ        -0.8129
     15 N4         -0.1931    0.0118   -0.2692 N.pl3     1 PAZ        -0.6753
     16 C12        -0.3798   -0.3454    1.1426 C.3       1 PAZ         0.2105
     17 C13         0.4077    1.2666   -0.5590 C.ar      1 PAZ         0.1460
     18 C14         1.5870    1.6175    0.1342 C.ar      1 PAZ        -0.2289
     19 C15         2.0987    2.8771   -0.2282 C.ar      1 PAZ         0.3735
     20 N5          3.1862    3.5350    0.2111 N.2       1 PAZ        -0.5266
     21 N6          3.1877    4.6915   -0.4799 N.pl3     1 PAZ         0.1499
     22 C16         2.1531    4.8334   -1.3580 C.2       1 PAZ        -0.1003
     23 C17         1.4303    3.6821   -1.2225 C.ar      1 PAZ        -0.2201
     24 C18         0.2718    3.3661   -1.9209 C.ar      1 PAZ        -0.0538
     25 C19        -0.2175    2.1015   -1.5382 C.ar      1 PAZ        -0.1506
     26 C20         1.9811    6.0279   -2.2064 C.3       1 PAZ        -0.0311
     27 C21         4.2480    5.6440   -0.2407 C.3       1 PAZ         0.0269
     28 S1         -5.1401   -2.0322    2.3609 S.o2      1 PAZ         1.5218
     29 O1         -6.5843   -1.9722    2.1954 O.2       1 PAZ        -0.6587
     30 O2         -4.5634   -2.0854    3.6957 O.2       1 PAZ        -0.6587
     31 N7         -4.4300   -0.7359    1.5053 N.pl3     1 PAZ        -1.0249
     32 H1         -5.1572   -5.1145    3.8709 H         1 PAZ         0.0577
     33 H2         -6.4775   -4.1821    3.1234 H         1 PAZ         0.0577
     34 H3         -6.3389   -5.9097    2.8018 H         1 PAZ         0.0577
     35 H4         -3.4494   -2.1422    0.0745 H         1 PAZ         0.1592
     36 H5         -3.1780   -6.3811   -0.6217 H         1 PAZ         0.1647
     37 H6         -4.6398   -6.7992    1.3151 H         1 PAZ         0.1405
     38 H7         -2.4633   -4.6951   -2.2361 H         1 PAZ         0.4556
     39 H8          0.5726   -2.1325   -4.1888 H         1 PAZ         0.0262
     40 H9          1.0141   -0.2418   -2.6085 H         1 PAZ         0.1643
     41 H10         0.5662   -0.6932    1.5383 H         1 PAZ         0.0492
     42 H11        -1.1250   -1.1288    1.2067 H         1 PAZ         0.0492
     43 H12        -0.7126    0.5330    1.6816 H         1 PAZ         0.0492
     44 H13         2.0524    0.9766    0.8724 H         1 PAZ         0.1521
     45 H14        -0.2141    3.9853   -2.6618 H         1 PAZ         0.1346
     46 H15        -1.1283    1.7449   -2.0210 H         1 PAZ         0.1435
     47 H16         2.4994    5.9083   -3.1722 H         1 PAZ         0.0550
     48 H17         0.9183    6.2349   -2.4206 H         1 PAZ         0.0550
     49 H18         2.3770    6.9389   -1.7249 H         1 PAZ         0.0550
     50 H19         5.0685    5.4226   -0.9306 H         1 PAZ         0.0651
     51 H20         3.8756    6.6601   -0.4086 H         1 PAZ         0.0651
     52 H21         4.5897    5.5584    0.7962 H         1 PAZ         0.0651
     53 H22        -5.0438   -0.1438    0.9324 H         1 PAZ         0.4460
     54 H23        -3.6629   -0.2236    1.9573 H         1 PAZ         0.4460
@<TRIPOS>BOND
     1    1    2 1
     2    2    7 ar
     3    2    3 ar
     4    3    4 ar
     5    4    5 ar
     6    5    6 ar
     7    6    7 ar
     8    5    8 1
     9    8    9 1
    10    9   14 ar
    11    9   10 ar
    12   10   11 ar
    13   11   12 ar
    14   12   13 ar
    15   13   14 ar
    16   13   15 1
    17   15   16 1
    18   15   17 1
    19   17   25 ar
    20   17   18 ar
    21   18   19 ar
    22   19   23 ar
    23   19   20 2
    24   20   21 1
    25   21   22 1
    26   22   23 2
    27   23   24 ar
    28   24   25 ar
    29   22   26 1
    30   21   27 1
    31    3   28 1
    32   28   29 2
    33   28   30 2
    34   28   31 1
    35    1   32 1
    36    1   33 1
    37    1   34 1
    38    4   35 1
    39    6   36 1
    40    7   37 1
    41    8   38 1
    42   11   39 1
    43   12   40 1
    44   16   41 1
    45   16   42 1
    46   16   43 1
    47   18   44 1
    48   24   45 1
    49   25   46 1
    50   26   47 1
    51   26   48 1
    52   26   49 1
    53   27   50 1
    54   27   51 1
    55   27   52 1
    56   31   53 1
    57   31   54 1
