@<TRIPOS>MOLECULE
5-[[4-[(2,3-dimethylindazol-6-yl)-methyl-amino]pyrimidin-2-yl]amino]-2-methyl-benzenesulfonamide
   54    57     0     0     0
SMALL
USER_CHARGES

@<TRIPOS>ATOM
      1 C1         -5.7603   -4.9945    2.9658 C.3       1 <0>        -0.0768
      2 C2         -4.8761   -4.7061    1.7969 C.ar      1 <0>         0.0223
      3 C3         -4.5403   -3.3984    1.4463 C.ar      1 <0>        -0.3608
      4 C4         -3.7122   -3.1613    0.3491 C.ar      1 <0>        -0.0850
      5 C5         -3.2200   -4.2319   -0.3975 C.ar      1 <0>         0.1390
      6 C6         -3.5560   -5.5395   -0.0468 C.ar      1 <0>        -0.0685
      7 C7         -4.3840   -5.7766    1.0503 C.ar      1 <0>        -0.1439
      8 N1         -2.3835   -3.9928   -1.5060 N.pl3     1 <0>        -0.7299
      9 C8         -1.4572   -2.9696   -1.8025 C.ar      1 <0>         0.9094
     10 N2         -0.8196   -3.0596   -2.9852 N.ar      1 <0>        -0.7710
     11 C9          0.0569   -2.0652   -3.2367 C.ar      1 <0>         0.4780
     12 C10         0.3027   -1.0219   -2.3675 C.ar      1 <0>        -0.4546
     13 C11        -0.4151   -1.0447   -1.1892 C.ar      1 <0>         0.7359
     14 N3         -1.3067   -2.0068   -0.8730 N.ar      1 <0>        -0.8111
     15 N4         -0.1931    0.0118   -0.2692 N.pl3     1 <0>        -0.6764
     16 C12        -0.3798   -0.3454    1.1426 C.3       1 <0>         0.2109
     17 C13         0.4077    1.2666   -0.5590 C.ar      1 <0>         0.1443
     18 C14         1.5870    1.6175    0.1342 C.ar      1 <0>        -0.2266
     19 C15         2.0987    2.8771   -0.2282 C.ar      1 <0>         0.3724
     20 N5          3.1862    3.5350    0.2111 N.2       1 <0>        -0.5258
     21 N6          3.1877    4.6915   -0.4799 N.pl3     1 <0>         0.1510
     22 C16         2.1531    4.8334   -1.3580 C.2       1 <0>        -0.1022
     23 C17         1.4303    3.6821   -1.2225 C.ar      1 <0>        -0.2176
     24 C18         0.2718    3.3661   -1.9209 C.ar      1 <0>        -0.0547
     25 C19        -0.2175    2.1015   -1.5382 C.ar      1 <0>        -0.1494
     26 C20         1.9811    6.0279   -2.2064 C.3       1 <0>        -0.0314
     27 C21         4.2480    5.6440   -0.2407 C.3       1 <0>         0.0261
     28 S1         -5.1401   -2.0322    2.3609 S.o2      1 <0>         1.5278
     29 O1         -6.5843   -1.9722    2.1954 O.2       1 <0>        -0.6611
     30 O2         -4.5634   -2.0854    3.6957 O.2       1 <0>        -0.6611
     31 N7         -4.4300   -0.7359    1.5053 N.pl3     1 <0>        -1.0258
     32 H1         -6.0588   -4.0488    3.4418 H         1 <0>         0.0593
     33 H2         -5.2161   -5.6152    3.6928 H         1 <0>         0.0593
     34 H3         -6.6570   -5.5318    2.6235 H         1 <0>         0.0593
     35 H4         -3.4494   -2.1422    0.0745 H         1 <0>         0.1573
     36 H5         -3.1780   -6.3811   -0.6217 H         1 <0>         0.1656
     37 H6         -4.6398   -6.7992    1.3151 H         1 <0>         0.1405
     38 H7         -2.3859   -4.6895   -2.3572 H         1 <0>         0.4524
     39 H8          0.5726   -2.1325   -4.1888 H         1 <0>         0.0256
     40 H9          1.0141   -0.2418   -2.6085 H         1 <0>         0.1640
     41 H10        -0.1858    0.5354    1.7724 H         1 <0>         0.0493
     42 H11         0.3194   -1.1505    1.4127 H         1 <0>         0.0493
     43 H12        -1.4129   -0.6887    1.3004 H         1 <0>         0.0493
     44 H13         2.0524    0.9766    0.8724 H         1 <0>         0.1523
     45 H14        -0.2141    3.9853   -2.6618 H         1 <0>         0.1347
     46 H15        -1.1283    1.7449   -2.0210 H         1 <0>         0.1437
     47 H16         1.0802    5.9105   -2.8265 H         1 <0>         0.0551
     48 H17         2.8608    6.1458   -2.8563 H         1 <0>         0.0551
     49 H18         1.8741    6.9180   -1.5690 H         1 <0>         0.0551
     50 H19         4.1001    6.5259   -0.8814 H         1 <0>         0.0656
     51 H20         5.2175    5.1797   -0.4741 H         1 <0>         0.0656
     52 H21         4.2334    5.9514    0.8154 H         1 <0>         0.0656
     53 H22        -4.7221    0.2159    1.9730 H         1 <0>         0.4463
     54 H23        -4.7757   -0.7527    0.4612 H         1 <0>         0.4463
@<TRIPOS>BOND
     1    1    2 1
     2    1   32 1
     3    1   33 1
     4    1   34 1
     5    2    7 ar
     6    2    3 ar
     7    3    4 ar
     8    3   28 1
     9    4    5 ar
    10    4   35 1
    11    5    6 ar
    12    5    8 1
    13    6    7 ar
    14    6   36 1
    15    7   37 1
    16    8    9 1
    17    8   38 1
    18    9   14 ar
    19    9   10 ar
    20   10   11 ar
    21   11   12 ar
    22   11   39 1
    23   12   13 ar
    24   12   40 1
    25   13   14 ar
    26   13   15 1
    27   15   16 1
    28   15   17 1
    29   16   41 1
    30   16   42 1
    31   16   43 1
    32   17   25 ar
    33   17   18 ar
    34   18   19 ar
    35   18   44 1
    36   19   23 ar
    37   19   20 2
    38   20   21 1
    39   21   22 1
    40   21   27 1
    41   22   23 2
    42   22   26 1
    43   23   24 ar
    44   24   25 ar
    45   24   45 1
    46   25   46 1
    47   26   47 1
    48   26   48 1
    49   26   49 1
    50   27   50 1
    51   27   51 1
    52   27   52 1
    53   28   29 2
    54   28   30 2
    55   28   31 1
    56   31   53 1
    57   31   54 1
@<TRIPOS>MOLECULE
5-[[4-[(2,3-dimethylindazol-6-yl)-methyl-amino]pyrimidin-1-ium-2-yl]amino]-2-methyl-benzenesulfonamide
   55    58     0     0     0
SMALL
USER_CHARGES

@<TRIPOS>ATOM
      1 C1         -5.7603   -4.9945    2.9658 C.3       1 <0>        -0.0862
      2 C2         -4.8761   -4.7061    1.7969 C.ar      1 <0>         0.0655
      3 C3         -4.5403   -3.3984    1.4463 C.ar      1 <0>        -0.3350
      4 C4         -3.7122   -3.1613    0.3491 C.ar      1 <0>        -0.0290
      5 C5         -3.2200   -4.2319   -0.3975 C.ar      1 <0>         0.0459
      6 C6         -3.5560   -5.5395   -0.0468 C.ar      1 <0>        -0.1089
      7 C7         -4.3840   -5.7766    1.0503 C.ar      1 <0>        -0.1347
      8 N1         -2.3835   -3.9928   -1.5060 N.pl3     1 <0>        -0.7134
      9 C8         -1.4572   -2.9696   -1.8025 C.ar      1 <0>         0.8441
     10 N2         -0.8196   -3.0596   -2.9852 N.ar      1 <0>        -0.3638
     11 C9          0.0569   -2.0652   -3.2367 C.ar      1 <0>         0.0267
     12 C10         0.3027   -1.0219   -2.3675 C.ar      1 <0>        -0.3216
     13 C11        -0.4151   -1.0447   -1.1892 C.ar      1 <0>         0.7753
     14 N3         -1.3067   -2.0068   -0.8730 N.ar      1 <0>        -0.8173
     15 N4         -0.1931    0.0118   -0.2692 N.pl3     1 <0>        -0.5735
     16 C12        -0.3798   -0.3454    1.1426 C.3       1 <0>         0.1820
     17 C13         0.4077    1.2666   -0.5590 C.ar      1 <0>         0.0642
     18 C14         1.5870    1.6175    0.1342 C.ar      1 <0>        -0.1607
     19 C15         2.0987    2.8771   -0.2282 C.ar      1 <0>         0.3544
     20 N5          3.1862    3.5350    0.2111 N.2       1 <0>        -0.5019
     21 N6          3.1877    4.6915   -0.4799 N.pl3     1 <0>         0.1685
     22 C16         2.1531    4.8334   -1.3580 C.2       1 <0>        -0.0779
     23 C17         1.4303    3.6821   -1.2225 C.ar      1 <0>        -0.2236
     24 C18         0.2718    3.3661   -1.9209 C.ar      1 <0>        -0.0215
     25 C19        -0.2175    2.1015   -1.5382 C.ar      1 <0>        -0.1818
     26 C20         1.9811    6.0279   -2.2064 C.3       1 <0>        -0.0415
     27 C21         4.2480    5.6440   -0.2407 C.3       1 <0>         0.0182
     28 S1         -5.1401   -2.0322    2.3609 S.o2      1 <0>         1.5189
     29 O1         -6.5843   -1.9722    2.1954 O.2       1 <0>        -0.6435
     30 O2         -4.5634   -2.0854    3.6957 O.2       1 <0>        -0.6435
     31 N7         -4.4300   -0.7359    1.5053 N.pl3     1 <0>        -1.0284
     32 H1         -6.0588   -4.0488    3.4418 H         1 <0>         0.0739
     33 H2         -5.2161   -5.6152    3.6928 H         1 <0>         0.0739
     34 H3         -6.6570   -5.5318    2.6235 H         1 <0>         0.0739
     35 H4         -3.4494   -2.1422    0.0745 H         1 <0>         0.1794
     36 H5         -3.1780   -6.3811   -0.6217 H         1 <0>         0.1376
     37 H6         -4.6398   -6.7992    1.3151 H         1 <0>         0.1583
     38 H7         -2.3859   -4.6895   -2.3572 H         1 <0>         0.4858
     39 H8          0.5726   -2.1325   -4.1888 H         1 <0>         0.1980
     40 H9          1.0141   -0.2418   -2.6085 H         1 <0>         0.2037
     41 H10        -0.1858    0.5354    1.7724 H         1 <0>         0.0763
     42 H11         0.3194   -1.1505    1.4127 H         1 <0>         0.0763
     43 H12        -1.4129   -0.6887    1.3004 H         1 <0>         0.0763
     44 H13         2.0524    0.9766    0.8724 H         1 <0>         0.1610
     45 H14        -0.2141    3.9853   -2.6618 H         1 <0>         0.1490
     46 H15        -1.1283    1.7449   -2.0210 H         1 <0>         0.1393
     47 H16         1.0802    5.9105   -2.8265 H         1 <0>         0.0655
     48 H17         2.8608    6.1458   -2.8563 H         1 <0>         0.0655
     49 H18         1.8741    6.9180   -1.5690 H         1 <0>         0.0655
     50 H19         4.1001    6.5259   -0.8814 H         1 <0>         0.0775
     51 H20         5.2175    5.1797   -0.4741 H         1 <0>         0.0775
     52 H21         4.2334    5.9514    0.8154 H         1 <0>         0.0775
     53 H22        -4.7221    0.2159    1.9730 H         1 <0>         0.4572
     54 H23        -4.7757   -0.7527    0.4612 H         1 <0>         0.4572
     55 H24        -1.0319   -3.9005   -3.6619 H         1 <0>         0.3380
@<TRIPOS>BOND
     1    1    2 1
     2    1   32 1
     3    1   33 1
     4    1   34 1
     5    2    7 ar
     6    2    3 ar
     7    3    4 ar
     8    3   28 1
     9    4    5 ar
    10    4   35 1
    11    5    6 ar
    12    5    8 1
    13    6    7 ar
    14    6   36 1
    15    7   37 1
    16    8    9 1
    17    8   38 1
    18    9   14 ar
    19    9   10 ar
    20   10   11 ar
    21   10   55 1
    22   11   12 ar
    23   11   39 1
    24   12   13 ar
    25   12   40 1
    26   13   14 ar
    27   13   15 1
    28   15   16 1
    29   15   17 1
    30   16   41 1
    31   16   42 1
    32   16   43 1
    33   17   25 ar
    34   17   18 ar
    35   18   19 ar
    36   18   44 1
    37   19   23 ar
    38   19   20 2
    39   20   21 1
    40   21   22 1
    41   21   27 1
    42   22   23 2
    43   22   26 1
    44   23   24 ar
    45   24   25 ar
    46   24   45 1
    47   25   46 1
    48   26   47 1
    49   26   48 1
    50   26   49 1
    51   27   50 1
    52   27   51 1
    53   27   52 1
    54   28   29 2
    55   28   30 2
    56   28   31 1
    57   31   53 1
    58   31   54 1
@<TRIPOS>MOLECULE
5-[[4-[(2,3-dimethylindazol-1-ium-6-yl)-methyl-amino]pyrimidin-2-yl]amino]-2-methyl-benzenesulfonamide
   55    58     0     0     0
SMALL
USER_CHARGES

@<TRIPOS>ATOM
      1 C1         -5.7603   -4.9945    2.9658 C.3       1 <0>        -0.0842
      2 C2         -4.8761   -4.7061    1.7969 C.ar      1 <0>         0.0439
      3 C3         -4.5403   -3.3984    1.4463 C.ar      1 <0>        -0.3547
      4 C4         -3.7122   -3.1613    0.3491 C.ar      1 <0>        -0.0652
      5 C5         -3.2200   -4.2319   -0.3975 C.ar      1 <0>         0.1098
      6 C6         -3.5560   -5.5395   -0.0468 C.ar      1 <0>        -0.0626
      7 C7         -4.3840   -5.7766    1.0503 C.ar      1 <0>        -0.1458
      8 N1         -2.3835   -3.9928   -1.5060 N.pl3     1 <0>        -0.7170
      9 C8         -1.4572   -2.9696   -1.8025 C.ar      1 <0>         0.9271
     10 N2         -0.8196   -3.0596   -2.9852 N.ar      1 <0>        -0.7394
     11 C9          0.0569   -2.0652   -3.2367 C.ar      1 <0>         0.4960
     12 C10         0.3027   -1.0219   -2.3675 C.ar      1 <0>        -0.4726
     13 C11        -0.4151   -1.0447   -1.1892 C.ar      1 <0>         0.7104
     14 N3         -1.3067   -2.0068   -0.8730 N.ar      1 <0>        -0.7944
     15 N4         -0.1931    0.0118   -0.2692 N.pl3     1 <0>        -0.6693
     16 C12        -0.3798   -0.3454    1.1426 C.3       1 <0>         0.1982
     17 C13         0.4077    1.2666   -0.5590 C.ar      1 <0>         0.2744
     18 C14         1.5870    1.6175    0.1342 C.ar      1 <0>        -0.1842
     19 C15         2.0987    2.8771   -0.2282 C.ar      1 <0>         0.0073
     20 N5          3.1862    3.5350    0.2111 N.pl3     1 <0>        -0.1174
     21 N6          3.1877    4.6915   -0.4799 N.pl3     1 <0>        -0.0650
     22 C16         2.1531    4.8334   -1.3580 C.2       1 <0>         0.1433
     23 C17         1.4303    3.6821   -1.2225 C.ar      1 <0>        -0.2053
     24 C18         0.2718    3.3661   -1.9209 C.ar      1 <0>         0.0051
     25 C19        -0.2175    2.1015   -1.5382 C.ar      1 <0>        -0.1610
     26 C20         1.9811    6.0279   -2.2064 C.3       1 <0>        -0.0916
     27 C21         4.2480    5.6440   -0.2407 C.3       1 <0>         0.0003
     28 S1         -5.1401   -2.0322    2.3609 S.o2      1 <0>         1.5229
     29 O1         -6.5843   -1.9722    2.1954 O.2       1 <0>        -0.6540
     30 O2         -4.5634   -2.0854    3.6957 O.2       1 <0>        -0.6540
     31 N7         -4.4300   -0.7359    1.5053 N.pl3     1 <0>        -1.0269
     32 H1         -6.0588   -4.0488    3.4418 H         1 <0>         0.0667
     33 H2         -5.2161   -5.6152    3.6928 H         1 <0>         0.0667
     34 H3         -6.6570   -5.5318    2.6235 H         1 <0>         0.0667
     35 H4         -3.4494   -2.1422    0.0745 H         1 <0>         0.1604
     36 H5         -3.1780   -6.3811   -0.6217 H         1 <0>         0.1593
     37 H6         -4.6398   -6.7992    1.3151 H         1 <0>         0.1471
     38 H7         -2.3859   -4.6895   -2.3572 H         1 <0>         0.4635
     39 H8          0.5726   -2.1325   -4.1888 H         1 <0>         0.0392
     40 H9          1.0141   -0.2418   -2.6085 H         1 <0>         0.1512
     41 H10        -0.1858    0.5354    1.7724 H         1 <0>         0.0650
     42 H11         0.3194   -1.1505    1.4127 H         1 <0>         0.0650
     43 H12        -1.4129   -0.6887    1.3004 H         1 <0>         0.0650
     44 H13         2.0524    0.9766    0.8724 H         1 <0>         0.1777
     45 H14        -0.2141    3.9853   -2.6618 H         1 <0>         0.1663
     46 H15        -1.1283    1.7449   -2.0210 H         1 <0>         0.1811
     47 H16         1.0802    5.9105   -2.8265 H         1 <0>         0.1004
     48 H17         2.8608    6.1458   -2.8563 H         1 <0>         0.1004
     49 H18         1.8741    6.9180   -1.5690 H         1 <0>         0.1004
     50 H19         4.1001    6.5259   -0.8814 H         1 <0>         0.0952
     51 H20         5.2175    5.1797   -0.4741 H         1 <0>         0.0952
     52 H21         4.2334    5.9514    0.8154 H         1 <0>         0.0952
     53 H22        -4.7221    0.2159    1.9730 H         1 <0>         0.4502
     54 H23        -4.7757   -0.7527    0.4612 H         1 <0>         0.4502
     55 H24         3.8316    3.0808    0.9773 H         1 <0>         0.2980
@<TRIPOS>BOND
     1    1    2 1
     2    1   32 1
     3    1   33 1
     4    1   34 1
     5    2    7 ar
     6    2    3 ar
     7    3    4 ar
     8    3   28 1
     9    4    5 ar
    10    4   35 1
    11    5    6 ar
    12    5    8 1
    13    6    7 ar
    14    6   36 1
    15    7   37 1
    16    8    9 1
    17    8   38 1
    18    9   14 ar
    19    9   10 ar
    20   10   11 ar
    21   11   12 ar
    22   11   39 1
    23   12   13 ar
    24   12   40 1
    25   13   14 ar
    26   13   15 1
    27   15   16 1
    28   15   17 1
    29   16   41 1
    30   16   42 1
    31   16   43 1
    32   17   25 ar
    33   17   18 ar
    34   18   19 ar
    35   18   44 1
    36   19   23 ar
    37   19   20 2
    38   20   21 1
    39   20   55 1
    40   21   22 1
    41   21   27 1
    42   22   23 2
    43   22   26 1
    44   23   24 ar
    45   24   25 ar
    46   24   45 1
    47   25   46 1
    48   26   47 1
    49   26   48 1
    50   26   49 1
    51   27   50 1
    52   27   51 1
    53   27   52 1
    54   28   29 2
    55   28   30 2
    56   28   31 1
    57   31   53 1
    58   31   54 1
@<TRIPOS>MOLECULE
[5-[[4-[(2,3-dimethylindazol-6-yl)-methyl-amino]pyrimidin-2-yl]amino]-2-methyl-phenyl]sulfonylazanide
   53    56     0     0     0
SMALL
USER_CHARGES

@<TRIPOS>ATOM
      1 C1         -5.7603   -4.9945    2.9658 C.3       1 <0>        -0.0819
      2 C2         -4.8761   -4.7061    1.7969 C.ar      1 <0>         0.0121
      3 C3         -4.5403   -3.3984    1.4463 C.ar      1 <0>        -0.1864
      4 C4         -3.7122   -3.1613    0.3491 C.ar      1 <0>        -0.0810
      5 C5         -3.2200   -4.2319   -0.3975 C.ar      1 <0>         0.0857
      6 C6         -3.5560   -5.5395   -0.0468 C.ar      1 <0>        -0.1342
      7 C7         -4.3840   -5.7766    1.0503 C.ar      1 <0>        -0.1660
      8 N1         -2.3835   -3.9928   -1.5060 N.pl3     1 <0>        -0.7116
      9 C8         -1.4572   -2.9696   -1.8025 C.ar      1 <0>         0.9164
     10 N2         -0.8196   -3.0596   -2.9852 N.ar      1 <0>        -0.7397
     11 C9          0.0569   -2.0652   -3.2367 C.ar      1 <0>         0.4741
     12 C10         0.3027   -1.0219   -2.3675 C.ar      1 <0>        -0.4888
     13 C11        -0.4151   -1.0447   -1.1892 C.ar      1 <0>         0.7222
     14 N3         -1.3067   -2.0068   -0.8730 N.ar      1 <0>        -0.8261
     15 N4         -0.1931    0.0118   -0.2692 N.pl3     1 <0>        -0.6827
     16 C12        -0.3798   -0.3454    1.1426 C.3       1 <0>         0.2137
     17 C13         0.4077    1.2666   -0.5590 C.ar      1 <0>         0.1654
     18 C14         1.5870    1.6175    0.1342 C.ar      1 <0>        -0.2477
     19 C15         2.0987    2.8771   -0.2282 C.ar      1 <0>         0.3790
     20 N5          3.1862    3.5350    0.2111 N.2       1 <0>        -0.5368
     21 N6          3.1877    4.6915   -0.4799 N.pl3     1 <0>         0.1420
     22 C16         2.1531    4.8334   -1.3580 C.2       1 <0>        -0.1086
     23 C17         1.4303    3.6821   -1.2225 C.ar      1 <0>        -0.2153
     24 C18         0.2718    3.3661   -1.9209 C.ar      1 <0>        -0.0671
     25 C19        -0.2175    2.1015   -1.5382 C.ar      1 <0>        -0.1360
     26 C20         1.9811    6.0279   -2.2064 C.3       1 <0>        -0.0290
     27 C21         4.2480    5.6440   -0.2407 C.3       1 <0>         0.0314
     28 S1         -5.1401   -2.0322    2.3609 S.o2      1 <0>         1.6462
     29 O1         -6.5843   -1.9722    2.1954 O.2       1 <0>        -0.7744
     30 O2         -4.5634   -2.0854    3.6957 O.2       1 <0>        -0.7744
     31 N7         -4.4300   -0.7359    1.5053 N.2       1 <0>        -1.3107
     32 H1         -6.0588   -4.0488    3.4418 H         1 <0>         0.0570
     33 H2         -5.2161   -5.6152    3.6928 H         1 <0>         0.0570
     34 H3         -6.6570   -5.5318    2.6235 H         1 <0>         0.0570
     35 H4         -3.4494   -2.1422    0.0745 H         1 <0>         0.1308
     36 H5         -3.1780   -6.3811   -0.6217 H         1 <0>         0.1207
     37 H6         -4.6398   -6.7992    1.3151 H         1 <0>         0.1109
     38 H7         -2.3859   -4.6895   -2.3572 H         1 <0>         0.4402
     39 H8          0.5726   -2.1325   -4.1888 H         1 <0>         0.0145
     40 H9          1.0141   -0.2418   -2.6085 H         1 <0>         0.1512
     41 H10        -0.1858    0.5354    1.7724 H         1 <0>         0.0447
     42 H11         0.3194   -1.1505    1.4127 H         1 <0>         0.0447
     43 H12        -1.4129   -0.6887    1.3004 H         1 <0>         0.0447
     44 H13         2.0524    0.9766    0.8724 H         1 <0>         0.1502
     45 H14        -0.2141    3.9853   -2.6618 H         1 <0>         0.1298
     46 H15        -1.1283    1.7449   -2.0210 H         1 <0>         0.1503
     47 H16         1.0802    5.9105   -2.8265 H         1 <0>         0.0513
     48 H17         2.8608    6.1458   -2.8563 H         1 <0>         0.0513
     49 H18         1.8741    6.9180   -1.5690 H         1 <0>         0.0513
     50 H19         4.1001    6.5259   -0.8814 H         1 <0>         0.0601
     51 H20         5.2175    5.1797   -0.4741 H         1 <0>         0.0601
     52 H21         4.2334    5.9514    0.8154 H         1 <0>         0.0601
     53 H22        -4.6097    0.3002    1.8281 H         1 <0>         0.4724
@<TRIPOS>BOND
     1    1    2 1
     2    1   32 1
     3    1   33 1
     4    1   34 1
     5    2    7 ar
     6    2    3 ar
     7    3    4 ar
     8    3   28 1
     9    4    5 ar
    10    4   35 1
    11    5    6 ar
    12    5    8 1
    13    6    7 ar
    14    6   36 1
    15    7   37 1
    16    8    9 1
    17    8   38 1
    18    9   14 ar
    19    9   10 ar
    20   10   11 ar
    21   11   12 ar
    22   11   39 1
    23   12   13 ar
    24   12   40 1
    25   13   14 ar
    26   13   15 1
    27   15   16 1
    28   15   17 1
    29   16   41 1
    30   16   42 1
    31   16   43 1
    32   17   25 ar
    33   17   18 ar
    34   18   19 ar
    35   18   44 1
    36   19   23 ar
    37   19   20 2
    38   20   21 1
    39   21   22 1
    40   21   27 1
    41   22   23 2
    42   22   26 1
    43   23   24 ar
    44   24   25 ar
    45   24   45 1
    46   25   46 1
    47   26   47 1
    48   26   48 1
    49   26   49 1
    50   27   50 1
    51   27   51 1
    52   27   52 1
    53   28   29 2
    54   28   30 2
    55   28   31 1
    56   31   53 1
