4-[4-[[4-chloro-3-(trifluoromethyl)phenyl]carbamoylamino]phenoxy]-~{N}-methyl-pyridine-2-carboxamide
                    3D
 Structure written by MMmdl.
 48 50  0  0  1  0            999 V2000
   -4.0152   -5.1642   -2.5777 C   0  0  0  0  0  0
   -3.0880   -4.0870   -2.8399 N   0  0  0  0  0  0
   -1.9525   -3.8811   -2.0727 C   0  0  0  0  0  0
   -1.6181   -4.5711   -1.1132 O   0  0  0  0  0  0
   -1.1339   -2.7405   -2.4463 C   0  0  0  0  0  0
    0.0228   -2.4499   -1.7410 C   0  0  0  0  0  0
    0.7689   -1.3468   -2.1408 C   0  0  0  0  0  0
    0.3416   -0.5792   -3.2185 C   0  0  0  0  0  0
   -0.8292   -0.9536   -3.8578 C   0  0  0  0  0  0
   -1.5807   -2.0183   -3.4982 N   0  0  0  0  0  0
    1.9269   -1.0161   -1.4726 O   0  0  0  0  0  0
    1.8851   -1.0363   -0.1124 C   0  0  0  0  0  0
    2.9210   -1.6309    0.6081 C   0  0  0  0  0  0
    2.8783   -1.6520    2.0022 C   0  0  0  0  0  0
    1.7997   -1.0786    2.6757 C   0  0  0  0  0  0
    0.7638   -0.4841    1.9551 C   0  0  0  0  0  0
    0.8066   -0.4630    0.5610 C   0  0  0  0  0  0
    1.7552   -1.1031    4.0700 N   0  0  0  0  0  0
    0.7594   -0.5821    4.9318 C   0  0  0  0  0  0
   -0.2571   -0.0063    4.5570 O   0  0  0  0  0  0
    1.1096   -0.8231    6.2700 N   0  0  0  0  0  0
    0.3915   -0.4666    7.4359 C   0  0  0  0  0  0
   -0.8232    0.2103    7.3267 C   0  0  0  0  0  0
   -1.5312    0.5624    8.4759 C   0  0  0  0  0  0
   -1.0244    0.2375    9.7342 C   0  0  0  0  0  0
    0.1904   -0.4394    9.8433 C   0  0  0  0  0  0
    0.8983   -0.7914    8.6941 C   0  0  0  0  0  0
    0.7670   -0.8056   11.1729 C   0  0  0  0  0  0
   -0.0058   -0.4145   12.2274 F   0  0  0  0  0  0
    0.9448   -2.1486   11.3367 F   0  0  0  0  0  0
    1.9910   -0.2428   11.3836 F   0  0  0  0  0  0
   -1.9290    0.6890   11.1331 Cl  0  0  0  0  0  0
   -4.8346   -5.1292   -3.3107 H   0  0  0  0  0  0
   -4.4260   -5.0556   -1.5631 H   0  0  0  0  0  0
   -3.4907   -6.1276   -2.6597 H   0  0  0  0  0  0
   -3.2718   -3.3940   -3.6741 H   0  0  0  0  0  0
    0.3413   -3.0609   -0.9023 H   0  0  0  0  0  0
    0.9033    0.2863   -3.5525 H   0  0  0  0  0  0
   -1.2041   -0.3885   -4.7047 H   0  0  0  0  0  0
    3.7641   -2.0784    0.0891 H   0  0  0  0  0  0
    3.6905   -2.1187    2.5539 H   0  0  0  0  0  0
   -0.0818   -0.0349    2.4696 H   0  0  0  0  0  0
   -0.0033    0.0022    0.0054 H   0  0  0  0  0  0
    2.5706   -1.5746    4.6381 H   0  0  0  0  0  0
    2.0457   -1.3497    6.5073 H   0  0  0  0  0  0
   -1.2281    0.4683    6.3514 H   0  0  0  0  0  0
   -2.4762    1.0895    8.3741 H   0  0  0  0  0  0
    1.8455   -1.3200    8.7800 H   0  0  0  0  0  0
  1  2  1  0  0  0
  1 33  1  0  0  0
  1 34  1  0  0  0
  1 35  1  0  0  0
  2  3  1  0  0  0
  2 36  1  0  0  0
  3  4  2  0  0  0
  3  5  1  0  0  0
  5 10  2  0  0  0
  5  6  1  0  0  0
  6  7  2  0  0  0
  6 37  1  0  0  0
  7  8  1  0  0  0
  7 11  1  0  0  0
  8  9  2  0  0  0
  8 38  1  0  0  0
  9 10  1  0  0  0
  9 39  1  0  0  0
 11 12  1  0  0  0
 12 17  2  0  0  0
 12 13  1  0  0  0
 13 14  2  0  0  0
 13 40  1  0  0  0
 14 15  1  0  0  0
 14 41  1  0  0  0
 15 16  2  0  0  0
 15 18  1  0  0  0
 16 17  1  0  0  0
 16 42  1  0  0  0
 17 43  1  0  0  0
 18 19  1  0  0  0
 18 44  1  0  0  0
 19 20  2  0  0  0
 19 21  1  0  0  0
 21 22  1  0  0  0
 21 45  1  0  0  0
 22 27  2  0  0  0
 22 23  1  0  0  0
 23 24  2  0  0  0
 23 46  1  0  0  0
 24 25  1  0  0  0
 24 47  1  0  0  0
 25 26  2  0  0  0
 25 32  1  0  0  0
 26 27  1  0  0  0
 26 28  1  0  0  0
 27 48  1  0  0  0
 28 29  1  0  0  0
 28 30  1  0  0  0
 28 31  1  0  0  0
M  END
> <s_m_source_file>
/cbio/jclab/home/andrrizzi/epik_inhibitors/output/Sorafenib/Sorafenib-input.mol2

> <i_m_source_file_index>
1

> <r_lp_tautomer_probability>
1

> <r_epik_Ionization_Penalty>
  0.0062

> <r_epik_Ionization_Penalty_Charging>
  0.0000

> <r_epik_Ionization_Penalty_Neutral>
  0.0062

> <r_epik_State_Penalty>
  0.0045

> <i_epik_Tot_Q>
0

$$$$
