@<TRIPOS>MOLECULE
4-[4-[[4-chloro-3-(trifluoromethyl)phenyl]carbamoylamino]phenoxy]-~{N}-methyl-pyridine-2-carboxamide
48   50    1
SMALL
USER_CHARGES


@<TRIPOS>ATOM
      1 C1         -4.0152   -5.1642   -2.5777 C.3       1 SOR         0.0826 
      2 N1         -3.0880   -4.0870   -2.8399 N.am      1 SOR        -0.5785 
      3 C2         -1.9525   -3.8812   -2.0727 C.2       1 SOR         0.5659 
      4 O1         -1.6181   -4.5711   -1.1132 O.2       1 SOR        -0.5652 
      5 C3         -1.1339   -2.7405   -2.4463 C.ar      1 SOR         0.3901 
      6 C4          0.0228   -2.4499   -1.7410 C.ar      1 SOR        -0.2538 
      7 C5          0.7689   -1.3468   -2.1408 C.ar      1 SOR         0.1457 
      8 C6          0.3416   -0.5792   -3.2185 C.ar      1 SOR        -0.2953 
      9 C7         -0.8292   -0.9536   -3.8578 C.ar      1 SOR         0.4214 
     10 N2         -1.5807   -2.0183   -3.4982 N.ar      1 SOR        -0.6329 
     11 O2          1.9269   -1.0161   -1.4726 O.3       1 SOR        -0.2398 
     12 C8          1.8851   -1.0363   -0.1124 C.ar      1 SOR         0.0391 
     13 C9          2.9210   -1.6309    0.6081 C.ar      1 SOR        -0.0978 
     14 C10         2.8783   -1.6520    2.0022 C.ar      1 SOR        -0.1661 
     15 C11         1.7997   -1.0786    2.6757 C.ar      1 SOR         0.0898 
     16 C12         0.7638   -0.4841    1.9551 C.ar      1 SOR        -0.1661 
     17 C13         0.8066   -0.4630    0.5610 C.ar      1 SOR        -0.0978 
     18 N3          1.7552   -1.1031    4.0700 N.am      1 SOR        -0.4795 
     19 C14         0.7594   -0.5821    4.9318 C.2       1 SOR         0.8019 
     20 O3         -0.2571   -0.0063    4.5570 O.2       1 SOR        -0.6069 
     21 N4          1.1096   -0.8231    6.2700 N.am      1 SOR        -0.4825 
     22 C15         0.3915   -0.4666    7.4359 C.ar      1 SOR         0.0869 
     23 C16        -0.8232    0.2103    7.3267 C.ar      1 SOR        -0.1213 
     24 C17        -1.5312    0.5624    8.4759 C.ar      1 SOR        -0.1067 
     25 C18        -1.0244    0.2375    9.7342 C.ar      1 SOR         0.0354 
     26 C19         0.1904   -0.4394    9.8433 C.ar      1 SOR        -0.1270 
     27 C20         0.8983   -0.7914    8.6941 C.ar      1 SOR        -0.1514 
     28 C21         0.7670   -0.8056   11.1729 C.3       1 SOR         0.6928 
     29 F1         -0.0058   -0.4145   12.2274 F         1 SOR        -0.2323 
     30 F2          0.9448   -2.1486   11.3367 F         1 SOR        -0.2323 
     31 F3          1.9910   -0.2428   11.3836 F         1 SOR        -0.2323 
     32 Cl1        -1.9290    0.6890   11.1331 Cl        1 SOR        -0.0558 
     33 H1         -4.8346   -5.1292   -3.3107 H         1 SOR         0.0442 
     34 H2         -4.4260   -5.0556   -1.5631 H         1 SOR         0.0442 
     35 H3         -3.4907   -6.1276   -2.6598 H         1 SOR         0.0442 
     36 H4         -3.2718   -3.3939   -3.6741 H         1 SOR         0.3122 
     37 H5          0.3413   -3.0609   -0.9023 H         1 SOR         0.1631 
     38 H6          0.9033    0.2863   -3.5525 H         1 SOR         0.1607 
     39 H7         -1.2042   -0.3885   -4.7047 H         1 SOR         0.0318 
     40 H8          3.7641   -2.0784    0.0891 H         1 SOR         0.1560 
     41 H9          3.6905   -2.1187    2.5539 H         1 SOR         0.1592 
     42 H10        -0.0818   -0.0349    2.4696 H         1 SOR         0.1592 
     43 H11        -0.0033    0.0022    0.0054 H         1 SOR         0.1560 
     44 H12         2.5706   -1.5746    4.6381 H         1 SOR         0.3175 
     45 H13         2.0457   -1.3497    6.5073 H         1 SOR         0.3214 
     46 H14        -1.2281    0.4683    6.3514 H         1 SOR         0.1901 
     47 H15        -2.4762    1.0895    8.3741 H         1 SOR         0.1603 
     48 H16         1.8455   -1.3200    8.7800 H         1 SOR         0.1496 
@<TRIPOS>BOND
     1    1    2 1    
     2    1   33 1    
     3    1   34 1    
     4    1   35 1    
     5    2    3 am   BACKBONE|DICT|INTERRES
     6    2   36 1    
     7    3    4 2    
     8    3    5 1    
     9    5   10 ar   
    10    5    6 ar   
    11    6    7 ar   
    12    6   37 1    
    13    7    8 ar   
    14    7   11 1    
    15    8    9 ar   
    16    8   38 1    
    17    9   10 ar   
    18    9   39 1    
    19   11   12 1    
    20   12   17 ar   
    21   12   13 ar   
    22   13   14 ar   
    23   13   40 1    
    24   14   15 ar   
    25   14   41 1    
    26   15   16 ar   
    27   15   18 1    
    28   16   17 ar   
    29   16   42 1    
    30   17   43 1    
    31   18   19 am   BACKBONE|DICT|INTERRES
    32   18   44 1    
    33   19   20 2    
    34   19   21 am   BACKBONE|DICT|INTERRES
    35   21   22 1    
    36   21   45 1    
    37   22   27 ar   
    38   22   23 ar   
    39   23   24 ar   
    40   23   46 1    
    41   24   25 ar   
    42   24   47 1    
    43   25   26 ar   
    44   25   32 1    
    45   26   27 ar   
    46   26   28 1    
    47   27   48 1    
    48   28   29 1    
    49   28   30 1    
    50   28   31 1    
@<TRIPOS>SUBSTRUCTURE
     1 SOR         1 GROUP             0       ****    0 ROOT    
@<TRIPOS>MOLECULE
4-[4-[[4-chloro-3-(trifluoromethyl)phenyl]carbamoylamino]phenoxy]-~{N}-methyl-pyridine-2-carboxamide
49   51    1
SMALL
USER_CHARGES


@<TRIPOS>ATOM
      1 C1         -4.0152   -5.1642   -2.5777 C.3       1 SOR         0.0826 
      2 N1         -3.0880   -4.0870   -2.8399 N.am      1 SOR        -0.5785 
      3 C2         -1.9525   -3.8812   -2.0727 C.2       1 SOR         0.5659 
      4 O1         -1.6181   -4.5711   -1.1132 O.2       1 SOR        -0.5652 
      5 C3         -1.1339   -2.7405   -2.4463 C.ar      1 SOR         0.3901 
      6 C4          0.0228   -2.4499   -1.7410 C.ar      1 SOR        -0.2538 
      7 C5          0.7689   -1.3468   -2.1408 C.ar      1 SOR         0.1457 
      8 C6          0.3416   -0.5792   -3.2185 C.ar      1 SOR        -0.2953 
      9 C7         -0.8292   -0.9536   -3.8578 C.ar      1 SOR         0.4214 
     10 N2         -1.5807   -2.0183   -3.4982 N.pl3     1 SOR        -0.6329 
     11 O2          1.9269   -1.0161   -1.4726 O.3       1 SOR        -0.2398 
     12 C8          1.8851   -1.0363   -0.1124 C.ar      1 SOR         0.0391 
     13 C9          2.9210   -1.6309    0.6081 C.ar      1 SOR        -0.0978 
     14 C10         2.8783   -1.6520    2.0022 C.ar      1 SOR        -0.1661 
     15 C11         1.7997   -1.0786    2.6757 C.ar      1 SOR         0.0898 
     16 C12         0.7638   -0.4841    1.9551 C.ar      1 SOR        -0.1661 
     17 C13         0.8066   -0.4630    0.5610 C.ar      1 SOR        -0.0978 
     18 N3          1.7552   -1.1031    4.0700 N.am      1 SOR        -0.4795 
     19 C14         0.7594   -0.5821    4.9318 C.2       1 SOR         0.8019 
     20 O3         -0.2571   -0.0063    4.5570 O.2       1 SOR        -0.6069 
     21 N4          1.1096   -0.8231    6.2700 N.am      1 SOR        -0.4825 
     22 C15         0.3915   -0.4666    7.4359 C.ar      1 SOR         0.0869 
     23 C16        -0.8232    0.2103    7.3267 C.ar      1 SOR        -0.1213 
     24 C17        -1.5312    0.5624    8.4759 C.ar      1 SOR        -0.1067 
     25 C18        -1.0244    0.2375    9.7342 C.ar      1 SOR         0.0354 
     26 C19         0.1904   -0.4394    9.8433 C.ar      1 SOR        -0.1270 
     27 C20         0.8983   -0.7914    8.6941 C.ar      1 SOR        -0.1514 
     28 C21         0.7670   -0.8056   11.1729 C.3       1 SOR         0.6928 
     29 F1         -0.0058   -0.4145   12.2274 F         1 SOR        -0.2323 
     30 F2          0.9448   -2.1486   11.3367 F         1 SOR        -0.2323 
     31 F3          1.9910   -0.2428   11.3836 F         1 SOR        -0.2323 
     32 Cl1        -1.9290    0.6890   11.1331 Cl        1 SOR        -0.0558 
     33 H1         -4.8346   -5.1292   -3.3107 H         1 SOR         0.0442 
     34 H2         -4.4260   -5.0556   -1.5631 H         1 SOR         0.0442 
     35 H3         -3.4907   -6.1276   -2.6598 H         1 SOR         0.0442 
     36 H4         -3.2718   -3.3939   -3.6741 H         1 SOR         0.3122 
     37 H5          0.3413   -3.0609   -0.9023 H         1 SOR         0.1631 
     38 H6          0.9033    0.2863   -3.5525 H         1 SOR         0.1607 
     39 H7         -1.2042   -0.3885   -4.7047 H         1 SOR         0.0318 
     40 H8          3.7641   -2.0784    0.0891 H         1 SOR         0.1560 
     41 H9          3.6905   -2.1187    2.5539 H         1 SOR         0.1592 
     42 H10        -0.0818   -0.0349    2.4696 H         1 SOR         0.1592 
     43 H11        -0.0033    0.0022    0.0054 H         1 SOR         0.1560 
     44 H12         2.5706   -1.5746    4.6381 H         1 SOR         0.3175 
     45 H13         2.0457   -1.3497    6.5073 H         1 SOR         0.3214 
     46 H14        -1.2281    0.4683    6.3514 H         1 SOR         0.1901 
     47 H15        -2.4762    1.0895    8.3741 H         1 SOR         0.1603 
     48 H16         1.8455   -1.3200    8.7800 H         1 SOR         0.1496 
     49 H49        -2.5094   -2.3096   -4.0106 H         1 SOR         0.0000 
@<TRIPOS>BOND
     1    1    2 1    
     2    1   33 1    
     3    1   34 1    
     4    1   35 1    
     5    2    3 am   BACKBONE|DICT|INTERRES
     6    2   36 1    
     7    3    4 2    
     8    3    5 1    
     9    5   10 ar   
    10    5    6 ar   
    11    6    7 ar   
    12    6   37 1    
    13    7    8 ar   
    14    7   11 1    
    15    8    9 ar   
    16    8   38 1    
    17    9   10 ar   
    18    9   39 1    
    19   10   49 1    
    20   11   12 1    
    21   12   17 ar   
    22   12   13 ar   
    23   13   14 ar   
    24   13   40 1    
    25   14   15 ar   
    26   14   41 1    
    27   15   16 ar   
    28   15   18 1    
    29   16   17 ar   
    30   16   42 1    
    31   17   43 1    
    32   18   19 am   BACKBONE|DICT|INTERRES
    33   18   44 1    
    34   19   20 2    
    35   19   21 am   BACKBONE|DICT|INTERRES
    36   21   22 1    
    37   21   45 1    
    38   22   27 ar   
    39   22   23 ar   
    40   23   24 ar   
    41   23   46 1    
    42   24   25 ar   
    43   24   47 1    
    44   25   26 ar   
    45   25   32 1    
    46   26   27 ar   
    47   26   28 1    
    48   27   48 1    
    49   28   29 1    
    50   28   30 1    
    51   28   31 1    
@<TRIPOS>SUBSTRUCTURE
     1 SOR         1 GROUP             0       ****    0 ROOT    
@<TRIPOS>MOLECULE
4-[4-[[4-chloro-3-(trifluoromethyl)phenyl]carbamoylamino]phenoxy]-~{N}-methyl-pyridine-2-carboxamide
48   50    1
SMALL
USER_CHARGES


@<TRIPOS>ATOM
      1 C1         -4.0152   -5.1642   -2.5777 C.3       1 SOR         0.0826 
      2 N1         -3.0880   -4.0870   -2.8399 N.2       1 SOR        -0.5785 
      3 C2         -1.9525   -3.8812   -2.0727 C.2       1 SOR         0.5659 
      4 O1         -1.6181   -4.5711   -1.1132 O.co2     1 SOR        -0.5652 
      5 C3         -1.1339   -2.7405   -2.4463 C.ar      1 SOR         0.3901 
      6 C4          0.0228   -2.4499   -1.7410 C.ar      1 SOR        -0.2538 
      7 C5          0.7689   -1.3468   -2.1408 C.ar      1 SOR         0.1457 
      8 C6          0.3416   -0.5792   -3.2185 C.ar      1 SOR        -0.2953 
      9 C7         -0.8292   -0.9536   -3.8578 C.ar      1 SOR         0.4214 
     10 N2         -1.5807   -2.0183   -3.4982 N.pl3     1 SOR        -0.6329 
     11 O2          1.9269   -1.0161   -1.4726 O.3       1 SOR        -0.2398 
     12 C8          1.8851   -1.0363   -0.1124 C.ar      1 SOR         0.0391 
     13 C9          2.9210   -1.6309    0.6081 C.ar      1 SOR        -0.0978 
     14 C10         2.8783   -1.6520    2.0022 C.ar      1 SOR        -0.1661 
     15 C11         1.7997   -1.0786    2.6757 C.ar      1 SOR         0.0898 
     16 C12         0.7638   -0.4841    1.9551 C.ar      1 SOR        -0.1661 
     17 C13         0.8066   -0.4630    0.5610 C.ar      1 SOR        -0.0978 
     18 N3          1.7552   -1.1031    4.0700 N.am      1 SOR        -0.4795 
     19 C14         0.7594   -0.5821    4.9318 C.2       1 SOR         0.8019 
     20 O3         -0.2571   -0.0063    4.5570 O.2       1 SOR        -0.6069 
     21 N4          1.1096   -0.8231    6.2700 N.am      1 SOR        -0.4825 
     22 C15         0.3915   -0.4666    7.4359 C.ar      1 SOR         0.0869 
     23 C16        -0.8232    0.2103    7.3267 C.ar      1 SOR        -0.1213 
     24 C17        -1.5312    0.5624    8.4759 C.ar      1 SOR        -0.1067 
     25 C18        -1.0244    0.2375    9.7342 C.ar      1 SOR         0.0354 
     26 C19         0.1904   -0.4394    9.8433 C.ar      1 SOR        -0.1270 
     27 C20         0.8983   -0.7914    8.6941 C.ar      1 SOR        -0.1514 
     28 C21         0.7670   -0.8056   11.1729 C.3       1 SOR         0.6928 
     29 F1         -0.0058   -0.4145   12.2274 F         1 SOR        -0.2323 
     30 F2          0.9448   -2.1486   11.3367 F         1 SOR        -0.2323 
     31 F3          1.9910   -0.2428   11.3836 F         1 SOR        -0.2323 
     32 Cl1        -1.9290    0.6890   11.1331 Cl        1 SOR        -0.0558 
     33 H1         -4.8346   -5.1292   -3.3107 H         1 SOR         0.0442 
     34 H2         -4.4260   -5.0556   -1.5631 H         1 SOR         0.0442 
     35 H3         -3.4907   -6.1276   -2.6598 H         1 SOR         0.0442 
     36 H5          0.3413   -3.0609   -0.9023 H         1 SOR         0.1631 
     37 H6          0.9033    0.2863   -3.5525 H         1 SOR         0.1607 
     38 H7         -1.2042   -0.3885   -4.7047 H         1 SOR         0.0318 
     39 H8          3.7641   -2.0784    0.0891 H         1 SOR         0.1560 
     40 H9          3.6905   -2.1187    2.5539 H         1 SOR         0.1592 
     41 H10        -0.0818   -0.0349    2.4696 H         1 SOR         0.1592 
     42 H11        -0.0033    0.0022    0.0054 H         1 SOR         0.1560 
     43 H12         2.5706   -1.5746    4.6381 H         1 SOR         0.3175 
     44 H13         2.0457   -1.3497    6.5073 H         1 SOR         0.3214 
     45 H14        -1.2281    0.4683    6.3514 H         1 SOR         0.1901 
     46 H15        -2.4762    1.0895    8.3741 H         1 SOR         0.1603 
     47 H16         1.8455   -1.3200    8.7800 H         1 SOR         0.1496 
     48 H48        -2.5094   -2.3096   -4.0106 H         1 SOR         0.0000 
@<TRIPOS>BOND
     1    1    2 1    
     2    1   33 1    
     3    1   34 1    
     4    1   35 1    
     5    2    3 2    
     6    3    4 1    
     7    3    5 1    
     8    5   10 ar   
     9    5    6 ar   
    10    6    7 ar   
    11    6   36 1    
    12    7    8 ar   
    13    7   11 1    
    14    8    9 ar   
    15    8   37 1    
    16    9   10 ar   
    17    9   38 1    
    18   10   48 1    
    19   11   12 1    
    20   12   17 ar   
    21   12   13 ar   
    22   13   14 ar   
    23   13   39 1    
    24   14   15 ar   
    25   14   40 1    
    26   15   16 ar   
    27   15   18 1    
    28   16   17 ar   
    29   16   41 1    
    30   17   42 1    
    31   18   19 am   BACKBONE|DICT|INTERRES
    32   18   43 1    
    33   19   20 2    
    34   19   21 am   BACKBONE|DICT|INTERRES
    35   21   22 1    
    36   21   44 1    
    37   22   27 ar   
    38   22   23 ar   
    39   23   24 ar   
    40   23   45 1    
    41   24   25 ar   
    42   24   46 1    
    43   25   26 ar   
    44   25   32 1    
    45   26   27 ar   
    46   26   28 1    
    47   27   47 1    
    48   28   29 1    
    49   28   30 1    
    50   28   31 1    
@<TRIPOS>SUBSTRUCTURE
     1 SOR         1 GROUP             0       ****    0 ROOT    
@<TRIPOS>MOLECULE
4-[4-[[4-chloro-3-(trifluoromethyl)phenyl]carbamoylamino]phenoxy]-~{N}-methyl-pyridine-2-carboxamide
47   49    1
SMALL
USER_CHARGES


@<TRIPOS>ATOM
      1 C1         -4.0152   -5.1642   -2.5777 C.3       1 SOR         0.0826 
      2 N1         -3.0880   -4.0870   -2.8399 N.2       1 SOR        -0.5785 
      3 C2         -1.9525   -3.8812   -2.0727 C.2       1 SOR         0.5659 
      4 O1         -1.6181   -4.5711   -1.1132 O.co2     1 SOR        -0.5652 
      5 C3         -1.1339   -2.7405   -2.4463 C.ar      1 SOR         0.3901 
      6 C4          0.0228   -2.4499   -1.7410 C.ar      1 SOR        -0.2538 
      7 C5          0.7689   -1.3468   -2.1408 C.ar      1 SOR         0.1457 
      8 C6          0.3416   -0.5792   -3.2185 C.ar      1 SOR        -0.2953 
      9 C7         -0.8292   -0.9536   -3.8578 C.ar      1 SOR         0.4214 
     10 N2         -1.5807   -2.0183   -3.4982 N.ar      1 SOR        -0.6329 
     11 O2          1.9269   -1.0161   -1.4726 O.3       1 SOR        -0.2398 
     12 C8          1.8851   -1.0363   -0.1124 C.ar      1 SOR         0.0391 
     13 C9          2.9210   -1.6309    0.6081 C.ar      1 SOR        -0.0978 
     14 C10         2.8783   -1.6520    2.0022 C.ar      1 SOR        -0.1661 
     15 C11         1.7997   -1.0786    2.6757 C.ar      1 SOR         0.0898 
     16 C12         0.7638   -0.4841    1.9551 C.ar      1 SOR        -0.1661 
     17 C13         0.8066   -0.4630    0.5610 C.ar      1 SOR        -0.0978 
     18 N3          1.7552   -1.1031    4.0700 N.am      1 SOR        -0.4795 
     19 C14         0.7594   -0.5821    4.9318 C.2       1 SOR         0.8019 
     20 O3         -0.2571   -0.0063    4.5570 O.2       1 SOR        -0.6069 
     21 N4          1.1096   -0.8231    6.2700 N.am      1 SOR        -0.4825 
     22 C15         0.3915   -0.4666    7.4359 C.ar      1 SOR         0.0869 
     23 C16        -0.8232    0.2103    7.3267 C.ar      1 SOR        -0.1213 
     24 C17        -1.5312    0.5624    8.4759 C.ar      1 SOR        -0.1067 
     25 C18        -1.0244    0.2375    9.7342 C.ar      1 SOR         0.0354 
     26 C19         0.1904   -0.4394    9.8433 C.ar      1 SOR        -0.1270 
     27 C20         0.8983   -0.7914    8.6941 C.ar      1 SOR        -0.1514 
     28 C21         0.7670   -0.8056   11.1729 C.3       1 SOR         0.6928 
     29 F1         -0.0058   -0.4145   12.2274 F         1 SOR        -0.2323 
     30 F2          0.9448   -2.1486   11.3367 F         1 SOR        -0.2323 
     31 F3          1.9910   -0.2428   11.3836 F         1 SOR        -0.2323 
     32 Cl1        -1.9290    0.6890   11.1331 Cl        1 SOR        -0.0558 
     33 H1         -4.8346   -5.1292   -3.3107 H         1 SOR         0.0442 
     34 H2         -4.4260   -5.0556   -1.5631 H         1 SOR         0.0442 
     35 H3         -3.4907   -6.1276   -2.6598 H         1 SOR         0.0442 
     36 H5          0.3413   -3.0609   -0.9023 H         1 SOR         0.1631 
     37 H6          0.9033    0.2863   -3.5525 H         1 SOR         0.1607 
     38 H7         -1.2042   -0.3885   -4.7047 H         1 SOR         0.0318 
     39 H8          3.7641   -2.0784    0.0891 H         1 SOR         0.1560 
     40 H9          3.6905   -2.1187    2.5539 H         1 SOR         0.1592 
     41 H10        -0.0818   -0.0349    2.4696 H         1 SOR         0.1592 
     42 H11        -0.0033    0.0022    0.0054 H         1 SOR         0.1560 
     43 H12         2.5706   -1.5746    4.6381 H         1 SOR         0.3175 
     44 H13         2.0457   -1.3497    6.5073 H         1 SOR         0.3214 
     45 H14        -1.2281    0.4683    6.3514 H         1 SOR         0.1901 
     46 H15        -2.4762    1.0895    8.3741 H         1 SOR         0.1603 
     47 H16         1.8455   -1.3200    8.7800 H         1 SOR         0.1496 
@<TRIPOS>BOND
     1    1    2 1    
     2    1   33 1    
     3    1   34 1    
     4    1   35 1    
     5    2    3 2    
     6    3    4 1    
     7    3    5 1    
     8    5   10 ar   
     9    5    6 ar   
    10    6    7 ar   
    11    6   36 1    
    12    7    8 ar   
    13    7   11 1    
    14    8    9 ar   
    15    8   37 1    
    16    9   10 ar   
    17    9   38 1    
    18   11   12 1    
    19   12   17 ar   
    20   12   13 ar   
    21   13   14 ar   
    22   13   39 1    
    23   14   15 ar   
    24   14   40 1    
    25   15   16 ar   
    26   15   18 1    
    27   16   17 ar   
    28   16   41 1    
    29   17   42 1    
    30   18   19 am   BACKBONE|DICT|INTERRES
    31   18   43 1    
    32   19   20 2    
    33   19   21 am   BACKBONE|DICT|INTERRES
    34   21   22 1    
    35   21   44 1    
    36   22   27 ar   
    37   22   23 ar   
    38   23   24 ar   
    39   23   45 1    
    40   24   25 ar   
    41   24   46 1    
    42   25   26 ar   
    43   25   32 1    
    44   26   27 ar   
    45   26   28 1    
    46   27   47 1    
    47   28   29 1    
    48   28   30 1    
    49   28   31 1    
@<TRIPOS>SUBSTRUCTURE
     1 SOR         1 GROUP             0       ****    0 ROOT    
