5-chloro-~{N}2-[2-isopropoxy-5-methyl-4-(4-piperidyl)phenyl]-~{N}4-(2-isopropylsulfonylphenyl)pyrimidine-2,4-diamine
                    3D
 Structure written by MMmdl.
 75 78  0  0  1  0            999 V2000
    3.2107   -2.0875   -1.5667 C   0  0  0  0  0  0
    3.3563   -1.5514   -0.1804 C   0  0  0  0  0  0
    4.6080   -1.1075    0.2462 C   0  0  0  0  0  0
    4.7664   -0.6027    1.5368 C   0  0  0  0  0  0
    3.6731   -0.5417    2.4009 C   0  0  0  0  0  0
    2.4214   -0.9856    1.9743 C   0  0  0  0  0  0
    2.2630   -1.4904    0.6837 C   0  0  0  0  0  0
    0.8893   -1.9681    0.2415 C   0  0  0  0  0  0
   -0.2434   -1.1266    0.8508 C   0  0  0  0  0  0
   -1.6120   -1.6596    0.4259 C   0  0  0  0  0  0
   -1.7677   -3.0729    0.7712 N   0  3  0  0  0  0
   -0.7400   -3.8968    0.1340 C   0  0  0  0  0  0
    0.6653   -3.4577    0.5463 C   0  0  0  0  0  0
    3.8072   -0.0518    3.6657 O   0  0  0  0  0  0
    3.4867   -0.9342    4.7390 C   0  0  0  0  0  0
    4.7154   -1.1215    5.6150 C   0  0  0  0  0  0
    2.3135   -0.3642    5.5206 C   0  0  0  0  0  0
    6.0390   -0.1569    1.9555 N   0  0  0  0  0  0
    7.3461   -0.5454    1.6075 C   0  0  0  0  0  0
    8.3513    0.1108    2.2179 N   0  0  0  0  0  0
    9.5902   -0.2866    1.8610 C   0  0  0  0  0  0
    9.8400   -1.2863    0.9431 C   0  0  0  0  0  0
    8.7246   -1.8805    0.3891 C   0  0  0  0  0  0
    7.4582   -1.5337    0.6996 N   0  0  0  0  0  0
    8.9040   -2.9155   -0.5613 N   0  0  0  0  0  0
    8.1313   -4.0392   -0.8960 C   0  0  0  0  0  0
    7.3477   -4.6374    0.0909 C   0  0  0  0  0  0
    6.5726   -5.7555   -0.2166 C   0  0  0  0  0  0
    6.5810   -6.2755   -1.5109 C   0  0  0  0  0  0
    7.3646   -5.6773   -2.4977 C   0  0  0  0  0  0
    8.1398   -4.5592   -2.1903 C   0  0  0  0  0  0
    9.1117   -3.8390   -3.4562 S   0  0  0  0  0  0
   10.4262   -3.5581   -2.9006 O   0  0  0  0  0  0
    8.9890   -4.6501   -4.6578 O   0  0  0  0  0  0
    8.3127   -2.2870   -3.7905 C   0  0  0  0  0  0
    6.8813   -2.5228   -4.2446 C   0  0  0  0  0  0
    9.1052   -1.5028   -4.8239 C   0  0  0  0  0  0
   11.4533   -1.7221    0.5534 Cl  0  0  0  0  0  0
    4.1834   -2.0487   -2.0788 H   0  0  0  0  0  0
    2.4803   -1.4791   -2.1203 H   0  0  0  0  0  0
    2.8611   -3.1295   -1.5220 H   0  0  0  0  0  0
    5.4596   -1.1554   -0.4290 H   0  0  0  0  0  0
    1.5710   -0.9367    2.6504 H   0  0  0  0  0  0
    0.8756   -1.8310   -0.8498 H   0  0  0  0  0  0
   -0.1766   -1.1616    1.9482 H   0  0  0  0  0  0
   -0.1498   -0.0847    0.5108 H   0  0  0  0  0  0
   -2.4022   -1.0878    0.9345 H   0  0  0  0  0  0
   -1.7252   -1.5527   -0.6630 H   0  0  0  0  0  0
   -1.6856   -3.1952    1.8613 H   0  0  0  0  0  0
   -0.8771   -4.9475    0.4294 H   0  0  0  0  0  0
   -0.8254   -3.8091   -0.9592 H   0  0  0  0  0  0
    1.3997   -4.0600   -0.0086 H   0  0  0  0  0  0
    0.7871   -3.6336    1.6253 H   0  0  0  0  0  0
    3.2001   -1.8984    4.2937 H   0  0  0  0  0  0
    4.4737   -1.8017    6.4450 H   0  0  0  0  0  0
    5.0298   -0.1477    6.0186 H   0  0  0  0  0  0
    5.5315   -1.5506    5.0151 H   0  0  0  0  0  0
    2.0620   -1.0413    6.3502 H   0  0  0  0  0  0
    1.4442   -0.2618    4.8544 H   0  0  0  0  0  0
    2.5857    0.6229    5.9226 H   0  0  0  0  0  0
    6.1221    0.6503    2.6981 H   0  0  0  0  0  0
   10.3954    0.2467    2.3569 H   0  0  0  0  0  0
    9.7944   -2.9209   -1.2072 H   0  0  0  0  0  0
    7.3325   -4.2421    1.1036 H   0  0  0  0  0  0
    5.9636   -6.2220    0.5524 H   0  0  0  0  0  0
    5.9791   -7.1473   -1.7498 H   0  0  0  0  0  0
    7.3637   -6.0921   -3.5023 H   0  0  0  0  0  0
    8.1981   -1.5688   -2.9652 H   0  0  0  0  0  0
    6.3973   -1.5562   -4.4484 H   0  0  0  0  0  0
    6.3280   -3.0504   -3.4538 H   0  0  0  0  0  0
    6.8828   -3.1324   -5.1603 H   0  0  0  0  0  0
    8.6018   -0.5452   -5.0226 H   0  0  0  0  0  0
    9.1686   -2.0840   -5.7557 H   0  0  0  0  0  0
   10.1186   -1.3118   -4.4411 H   0  0  0  0  0  0
   -2.7542   -3.4258    0.4360 H   0  0  0  0  0  0
  1  2  1  0  0  0
  1 39  1  0  0  0
  1 40  1  0  0  0
  1 41  1  0  0  0
  2  7  2  0  0  0
  2  3  1  0  0  0
  3  4  2  0  0  0
  3 42  1  0  0  0
  4  5  1  0  0  0
  4 18  1  0  0  0
  5  6  2  0  0  0
  5 14  1  0  0  0
  6  7  1  0  0  0
  6 43  1  0  0  0
  7  8  1  0  0  0
  8 13  1  0  0  0
  8  9  1  0  0  0
  8 44  1  0  0  0
  9 10  1  0  0  0
  9 45  1  0  0  0
  9 46  1  0  0  0
 10 11  1  0  0  0
 10 47  1  0  0  0
 10 48  1  0  0  0
 11 12  1  0  0  0
 11 49  1  0  0  0
 11 75  1  0  0  0
 12 13  1  0  0  0
 12 50  1  0  0  0
 12 51  1  0  0  0
 13 52  1  0  0  0
 13 53  1  0  0  0
 14 15  1  0  0  0
 15 16  1  0  0  0
 15 17  1  0  0  0
 15 54  1  0  0  0
 16 55  1  0  0  0
 16 56  1  0  0  0
 16 57  1  0  0  0
 17 58  1  0  0  0
 17 59  1  0  0  0
 17 60  1  0  0  0
 18 19  1  0  0  0
 18 61  1  0  0  0
 19 24  2  0  0  0
 19 20  1  0  0  0
 20 21  2  0  0  0
 21 22  1  0  0  0
 21 62  1  0  0  0
 22 23  2  0  0  0
 22 38  1  0  0  0
 23 24  1  0  0  0
 23 25  1  0  0  0
 25 26  1  0  0  0
 25 63  1  0  0  0
 26 31  2  0  0  0
 26 27  1  0  0  0
 27 28  2  0  0  0
 27 64  1  0  0  0
 28 29  1  0  0  0
 28 65  1  0  0  0
 29 30  2  0  0  0
 29 66  1  0  0  0
 30 31  1  0  0  0
 30 67  1  0  0  0
 31 32  1  0  0  0
 32 33  2  0  0  0
 32 34  2  0  0  0
 32 35  1  0  0  0
 35 36  1  0  0  0
 35 37  1  0  0  0
 35 68  1  0  0  0
 36 69  1  0  0  0
 36 70  1  0  0  0
 36 71  1  0  0  0
 37 72  1  0  0  0
 37 73  1  0  0  0
 37 74  1  0  0  0
M  CHG  1  11   1
M  END
> <s_m_source_file>
/Users/choderaj/github/choderalab/mcce-charges/mcce-charges.jchodera/epik_inhibitors/output/Ceritinib/Ceritinib-input.mol2

> <i_m_source_file_index>
1

> <r_lp_tautomer_probability>
0.999998883680446

> <r_epik_Ionization_Penalty>
  0.0012

> <r_epik_Ionization_Penalty_Charging>
  0.0011

> <r_epik_Ionization_Penalty_Neutral>
  0.0001

> <r_epik_State_Penalty>
  0.0008

> <i_epik_Tot_Q>
1

$$$$
5-chloro-~{N}2-[2-isopropoxy-5-methyl-4-(4-piperidyl)phenyl]-~{N}4-(2-isopropylsulfonylphenyl)pyrimidine-2,4-diamine
                    3D
 Structure written by MMmdl.
 74 77  0  0  1  0            999 V2000
    3.2107   -2.0875   -1.5667 C   0  0  0  0  0  0
    3.3563   -1.5514   -0.1804 C   0  0  0  0  0  0
    4.6080   -1.1075    0.2462 C   0  0  0  0  0  0
    4.7664   -0.6027    1.5368 C   0  0  0  0  0  0
    3.6731   -0.5417    2.4009 C   0  0  0  0  0  0
    2.4214   -0.9856    1.9743 C   0  0  0  0  0  0
    2.2630   -1.4904    0.6837 C   0  0  0  0  0  0
    0.8893   -1.9681    0.2415 C   0  0  0  0  0  0
   -0.2434   -1.1266    0.8508 C   0  0  0  0  0  0
   -1.6120   -1.6596    0.4259 C   0  0  0  0  0  0
   -1.7677   -3.0729    0.7712 N   0  0  0  0  0  0
   -0.7400   -3.8968    0.1340 C   0  0  0  0  0  0
    0.6653   -3.4577    0.5463 C   0  0  0  0  0  0
    3.8072   -0.0518    3.6657 O   0  0  0  0  0  0
    3.4867   -0.9342    4.7390 C   0  0  0  0  0  0
    4.7154   -1.1215    5.6150 C   0  0  0  0  0  0
    2.3135   -0.3642    5.5206 C   0  0  0  0  0  0
    6.0390   -0.1569    1.9555 N   0  0  0  0  0  0
    7.3461   -0.5454    1.6075 C   0  0  0  0  0  0
    8.3513    0.1108    2.2179 N   0  0  0  0  0  0
    9.5902   -0.2866    1.8610 C   0  0  0  0  0  0
    9.8400   -1.2863    0.9431 C   0  0  0  0  0  0
    8.7246   -1.8805    0.3891 C   0  0  0  0  0  0
    7.4582   -1.5337    0.6996 N   0  0  0  0  0  0
    8.9040   -2.9155   -0.5613 N   0  0  0  0  0  0
    8.1313   -4.0392   -0.8960 C   0  0  0  0  0  0
    7.3477   -4.6374    0.0909 C   0  0  0  0  0  0
    6.5726   -5.7555   -0.2166 C   0  0  0  0  0  0
    6.5810   -6.2755   -1.5109 C   0  0  0  0  0  0
    7.3646   -5.6773   -2.4977 C   0  0  0  0  0  0
    8.1398   -4.5592   -2.1903 C   0  0  0  0  0  0
    9.1117   -3.8390   -3.4562 S   0  0  0  0  0  0
   10.4262   -3.5581   -2.9006 O   0  0  0  0  0  0
    8.9890   -4.6501   -4.6578 O   0  0  0  0  0  0
    8.3127   -2.2870   -3.7905 C   0  0  0  0  0  0
    6.8813   -2.5228   -4.2446 C   0  0  0  0  0  0
    9.1052   -1.5028   -4.8239 C   0  0  0  0  0  0
   11.4533   -1.7221    0.5534 Cl  0  0  0  0  0  0
    4.1834   -2.0487   -2.0788 H   0  0  0  0  0  0
    2.4803   -1.4791   -2.1203 H   0  0  0  0  0  0
    2.8611   -3.1295   -1.5220 H   0  0  0  0  0  0
    5.4596   -1.1554   -0.4290 H   0  0  0  0  0  0
    1.5710   -0.9367    2.6504 H   0  0  0  0  0  0
    0.8756   -1.8310   -0.8498 H   0  0  0  0  0  0
   -0.1766   -1.1616    1.9482 H   0  0  0  0  0  0
   -0.1498   -0.0847    0.5108 H   0  0  0  0  0  0
   -2.4022   -1.0878    0.9345 H   0  0  0  0  0  0
   -1.7252   -1.5527   -0.6630 H   0  0  0  0  0  0
   -1.6856   -3.1952    1.8613 H   0  0  0  0  0  0
   -0.8771   -4.9475    0.4294 H   0  0  0  0  0  0
   -0.8254   -3.8091   -0.9592 H   0  0  0  0  0  0
    1.3997   -4.0600   -0.0086 H   0  0  0  0  0  0
    0.7871   -3.6336    1.6253 H   0  0  0  0  0  0
    3.2001   -1.8984    4.2937 H   0  0  0  0  0  0
    4.4737   -1.8017    6.4450 H   0  0  0  0  0  0
    5.0298   -0.1477    6.0186 H   0  0  0  0  0  0
    5.5315   -1.5506    5.0151 H   0  0  0  0  0  0
    2.0620   -1.0413    6.3502 H   0  0  0  0  0  0
    1.4442   -0.2618    4.8544 H   0  0  0  0  0  0
    2.5857    0.6229    5.9226 H   0  0  0  0  0  0
    6.1221    0.6503    2.6981 H   0  0  0  0  0  0
   10.3954    0.2467    2.3569 H   0  0  0  0  0  0
    9.7944   -2.9209   -1.2072 H   0  0  0  0  0  0
    7.3325   -4.2421    1.1036 H   0  0  0  0  0  0
    5.9636   -6.2220    0.5524 H   0  0  0  0  0  0
    5.9791   -7.1473   -1.7498 H   0  0  0  0  0  0
    7.3637   -6.0921   -3.5023 H   0  0  0  0  0  0
    8.1981   -1.5688   -2.9652 H   0  0  0  0  0  0
    6.3973   -1.5562   -4.4484 H   0  0  0  0  0  0
    6.3280   -3.0504   -3.4538 H   0  0  0  0  0  0
    6.8828   -3.1324   -5.1603 H   0  0  0  0  0  0
    8.6018   -0.5452   -5.0226 H   0  0  0  0  0  0
    9.1686   -2.0840   -5.7557 H   0  0  0  0  0  0
   10.1186   -1.3118   -4.4411 H   0  0  0  0  0  0
  1  2  1  0  0  0
  1 39  1  0  0  0
  1 40  1  0  0  0
  1 41  1  0  0  0
  2  7  2  0  0  0
  2  3  1  0  0  0
  3  4  2  0  0  0
  3 42  1  0  0  0
  4  5  1  0  0  0
  4 18  1  0  0  0
  5  6  2  0  0  0
  5 14  1  0  0  0
  6  7  1  0  0  0
  6 43  1  0  0  0
  7  8  1  0  0  0
  8 13  1  0  0  0
  8  9  1  0  0  0
  8 44  1  0  0  0
  9 10  1  0  0  0
  9 45  1  0  0  0
  9 46  1  0  0  0
 10 11  1  0  0  0
 10 47  1  0  0  0
 10 48  1  0  0  0
 11 12  1  0  0  0
 11 49  1  0  0  0
 12 13  1  0  0  0
 12 50  1  0  0  0
 12 51  1  0  0  0
 13 52  1  0  0  0
 13 53  1  0  0  0
 14 15  1  0  0  0
 15 16  1  0  0  0
 15 17  1  0  0  0
 15 54  1  0  0  0
 16 55  1  0  0  0
 16 56  1  0  0  0
 16 57  1  0  0  0
 17 58  1  0  0  0
 17 59  1  0  0  0
 17 60  1  0  0  0
 18 19  1  0  0  0
 18 61  1  0  0  0
 19 24  2  0  0  0
 19 20  1  0  0  0
 20 21  2  0  0  0
 21 22  1  0  0  0
 21 62  1  0  0  0
 22 23  2  0  0  0
 22 38  1  0  0  0
 23 24  1  0  0  0
 23 25  1  0  0  0
 25 26  1  0  0  0
 25 63  1  0  0  0
 26 31  2  0  0  0
 26 27  1  0  0  0
 27 28  2  0  0  0
 27 64  1  0  0  0
 28 29  1  0  0  0
 28 65  1  0  0  0
 29 30  2  0  0  0
 29 66  1  0  0  0
 30 31  1  0  0  0
 30 67  1  0  0  0
 31 32  1  0  0  0
 32 33  2  0  0  0
 32 34  2  0  0  0
 32 35  1  0  0  0
 35 36  1  0  0  0
 35 37  1  0  0  0
 35 68  1  0  0  0
 36 69  1  0  0  0
 36 70  1  0  0  0
 36 71  1  0  0  0
 37 72  1  0  0  0
 37 73  1  0  0  0
 37 74  1  0  0  0
M  END
> <s_m_source_file>
/Users/choderaj/github/choderalab/mcce-charges/mcce-charges.jchodera/epik_inhibitors/output/Ceritinib/Ceritinib-input.mol2

> <i_m_source_file_index>
1

> <r_lp_tautomer_probability>
0.999998883680446

> <r_epik_Ionization_Penalty>
  3.7180

> <r_epik_Ionization_Penalty_Charging>
  0.0000

> <r_epik_Ionization_Penalty_Neutral>
  3.7180

> <r_epik_State_Penalty>
  3.9669

> <i_epik_Tot_Q>
0

$$$$
5-chloro-~{N}2-[2-isopropoxy-5-methyl-4-(4-piperidyl)phenyl]-~{N}4-(2-isopropylsulfonylphenyl)pyrimidine-2,4-diamine
                    3D
 Structure written by MMmdl.
 76 79  0  0  1  0            999 V2000
    3.2107   -2.0875   -1.5667 C   0  0  0  0  0  0
    3.3563   -1.5514   -0.1804 C   0  0  0  0  0  0
    4.6080   -1.1075    0.2462 C   0  0  0  0  0  0
    4.7664   -0.6027    1.5368 C   0  0  0  0  0  0
    3.6731   -0.5417    2.4009 C   0  0  0  0  0  0
    2.4214   -0.9856    1.9743 C   0  0  0  0  0  0
    2.2630   -1.4904    0.6837 C   0  0  0  0  0  0
    0.8893   -1.9681    0.2415 C   0  0  0  0  0  0
   -0.2434   -1.1266    0.8508 C   0  0  0  0  0  0
   -1.6120   -1.6596    0.4259 C   0  0  0  0  0  0
   -1.7677   -3.0729    0.7712 N   0  3  0  0  0  0
   -0.7400   -3.8968    0.1340 C   0  0  0  0  0  0
    0.6653   -3.4577    0.5463 C   0  0  0  0  0  0
    3.8072   -0.0518    3.6657 O   0  0  0  0  0  0
    3.4867   -0.9342    4.7390 C   0  0  0  0  0  0
    4.7154   -1.1215    5.6150 C   0  0  0  0  0  0
    2.3135   -0.3642    5.5206 C   0  0  0  0  0  0
    6.0390   -0.1569    1.9555 N   0  0  0  0  0  0
    7.3461   -0.5454    1.6075 C   0  0  0  0  0  0
    8.3513    0.1108    2.2179 N   0  3  0  0  0  0
    9.5902   -0.2866    1.8610 C   0  0  0  0  0  0
    9.8400   -1.2863    0.9431 C   0  0  0  0  0  0
    8.7246   -1.8805    0.3891 C   0  0  0  0  0  0
    7.4582   -1.5337    0.6996 N   0  0  0  0  0  0
    8.9040   -2.9155   -0.5613 N   0  0  0  0  0  0
    8.1313   -4.0392   -0.8960 C   0  0  0  0  0  0
    7.3477   -4.6374    0.0909 C   0  0  0  0  0  0
    6.5726   -5.7555   -0.2166 C   0  0  0  0  0  0
    6.5810   -6.2755   -1.5109 C   0  0  0  0  0  0
    7.3646   -5.6773   -2.4977 C   0  0  0  0  0  0
    8.1398   -4.5592   -2.1903 C   0  0  0  0  0  0
    9.1117   -3.8390   -3.4562 S   0  0  0  0  0  0
   10.4262   -3.5581   -2.9006 O   0  0  0  0  0  0
    8.9890   -4.6501   -4.6578 O   0  0  0  0  0  0
    8.3127   -2.2870   -3.7905 C   0  0  0  0  0  0
    6.8813   -2.5228   -4.2446 C   0  0  0  0  0  0
    9.1052   -1.5028   -4.8239 C   0  0  0  0  0  0
   11.4533   -1.7221    0.5534 Cl  0  0  0  0  0  0
    4.1834   -2.0487   -2.0788 H   0  0  0  0  0  0
    2.4803   -1.4791   -2.1203 H   0  0  0  0  0  0
    2.8611   -3.1295   -1.5220 H   0  0  0  0  0  0
    5.4596   -1.1554   -0.4290 H   0  0  0  0  0  0
    1.5710   -0.9367    2.6504 H   0  0  0  0  0  0
    0.8756   -1.8310   -0.8498 H   0  0  0  0  0  0
   -0.1766   -1.1616    1.9482 H   0  0  0  0  0  0
   -0.1498   -0.0847    0.5108 H   0  0  0  0  0  0
   -2.4022   -1.0878    0.9345 H   0  0  0  0  0  0
   -1.7252   -1.5527   -0.6630 H   0  0  0  0  0  0
   -1.6856   -3.1952    1.8613 H   0  0  0  0  0  0
   -0.8771   -4.9475    0.4294 H   0  0  0  0  0  0
   -0.8254   -3.8091   -0.9592 H   0  0  0  0  0  0
    1.3997   -4.0600   -0.0086 H   0  0  0  0  0  0
    0.7871   -3.6336    1.6253 H   0  0  0  0  0  0
    3.2001   -1.8984    4.2937 H   0  0  0  0  0  0
    4.4737   -1.8017    6.4450 H   0  0  0  0  0  0
    5.0298   -0.1477    6.0186 H   0  0  0  0  0  0
    5.5315   -1.5506    5.0151 H   0  0  0  0  0  0
    2.0620   -1.0413    6.3502 H   0  0  0  0  0  0
    1.4442   -0.2618    4.8544 H   0  0  0  0  0  0
    2.5857    0.6229    5.9226 H   0  0  0  0  0  0
    6.1221    0.6503    2.6981 H   0  0  0  0  0  0
   10.3954    0.2467    2.3569 H   0  0  0  0  0  0
    9.7944   -2.9209   -1.2072 H   0  0  0  0  0  0
    7.3325   -4.2421    1.1036 H   0  0  0  0  0  0
    5.9636   -6.2220    0.5524 H   0  0  0  0  0  0
    5.9791   -7.1473   -1.7498 H   0  0  0  0  0  0
    7.3637   -6.0921   -3.5023 H   0  0  0  0  0  0
    8.1981   -1.5688   -2.9652 H   0  0  0  0  0  0
    6.3973   -1.5562   -4.4484 H   0  0  0  0  0  0
    6.3280   -3.0504   -3.4538 H   0  0  0  0  0  0
    6.8828   -3.1324   -5.1603 H   0  0  0  0  0  0
    8.6018   -0.5452   -5.0226 H   0  0  0  0  0  0
    9.1686   -2.0840   -5.7557 H   0  0  0  0  0  0
   10.1186   -1.3118   -4.4411 H   0  0  0  0  0  0
   -2.7542   -3.4258    0.4360 H   0  0  0  0  0  0
    8.1279    0.9044    2.9461 H   0  0  0  0  0  0
  1  2  1  0  0  0
  1 39  1  0  0  0
  1 40  1  0  0  0
  1 41  1  0  0  0
  2  7  2  0  0  0
  2  3  1  0  0  0
  3  4  2  0  0  0
  3 42  1  0  0  0
  4  5  1  0  0  0
  4 18  1  0  0  0
  5  6  2  0  0  0
  5 14  1  0  0  0
  6  7  1  0  0  0
  6 43  1  0  0  0
  7  8  1  0  0  0
  8 13  1  0  0  0
  8  9  1  0  0  0
  8 44  1  0  0  0
  9 10  1  0  0  0
  9 45  1  0  0  0
  9 46  1  0  0  0
 10 11  1  0  0  0
 10 47  1  0  0  0
 10 48  1  0  0  0
 11 12  1  0  0  0
 11 49  1  0  0  0
 11 75  1  0  0  0
 12 13  1  0  0  0
 12 50  1  0  0  0
 12 51  1  0  0  0
 13 52  1  0  0  0
 13 53  1  0  0  0
 14 15  1  0  0  0
 15 16  1  0  0  0
 15 17  1  0  0  0
 15 54  1  0  0  0
 16 55  1  0  0  0
 16 56  1  0  0  0
 16 57  1  0  0  0
 17 58  1  0  0  0
 17 59  1  0  0  0
 17 60  1  0  0  0
 18 19  1  0  0  0
 18 61  1  0  0  0
 19 24  2  0  0  0
 19 20  1  0  0  0
 20 21  2  0  0  0
 20 76  1  0  0  0
 21 22  1  0  0  0
 21 62  1  0  0  0
 22 23  2  0  0  0
 22 38  1  0  0  0
 23 24  1  0  0  0
 23 25  1  0  0  0
 25 26  1  0  0  0
 25 63  1  0  0  0
 26 31  2  0  0  0
 26 27  1  0  0  0
 27 28  2  0  0  0
 27 64  1  0  0  0
 28 29  1  0  0  0
 28 65  1  0  0  0
 29 30  2  0  0  0
 29 66  1  0  0  0
 30 31  1  0  0  0
 30 67  1  0  0  0
 31 32  1  0  0  0
 32 33  2  0  0  0
 32 34  2  0  0  0
 32 35  1  0  0  0
 35 36  1  0  0  0
 35 37  1  0  0  0
 35 68  1  0  0  0
 36 69  1  0  0  0
 36 70  1  0  0  0
 36 71  1  0  0  0
 37 72  1  0  0  0
 37 73  1  0  0  0
 37 74  1  0  0  0
M  CHG  2  11   1  20   1
M  END
> <s_m_source_file>
/Users/choderaj/github/choderalab/mcce-charges/mcce-charges.jchodera/epik_inhibitors/output/Ceritinib/Ceritinib-input.mol2

> <i_m_source_file_index>
1

> <r_epik_Ionization_Penalty>
  5.1061

> <r_epik_Ionization_Penalty_Charging>
  5.0981

> <r_epik_Ionization_Penalty_Neutral>
  0.0081

> <r_epik_State_Penalty>
  5.4395

> <i_epik_Tot_Q>
2

$$$$
