@<TRIPOS>MOLECULE
5-chloro-~{N}2-[2-isopropoxy-5-methyl-4-(4-piperidyl)phenyl]-~{N}4-(2-isopropylsulfonylphenyl)pyrimidine-2,4-diamine
75   78    1
SMALL
USER_CHARGES


@<TRIPOS>ATOM
      1 C1          3.2107   -2.0875   -1.5667 C.3       1 CER        -0.0562 
      2 C2          3.3563   -1.5514   -0.1804 C.ar      1 CER        -0.0630 
      3 C3          4.6080   -1.1075    0.2462 C.ar      1 CER        -0.1307 
      4 C4          4.7664   -0.6027    1.5368 C.ar      1 CER         0.1580 
      5 C5          3.6731   -0.5417    2.4009 C.ar      1 CER         0.0623 
      6 C6          2.4214   -0.9856    1.9743 C.ar      1 CER        -0.1397 
      7 C7          2.2630   -1.4904    0.6837 C.ar      1 CER        -0.0721 
      8 C8          0.8893   -1.9681    0.2415 C.3       1 CER        -0.0178 
      9 C9         -0.2434   -1.1266    0.8508 C.3       1 CER        -0.0730 
     10 C10        -1.6120   -1.6596    0.4259 C.3       1 CER         0.1634 
     11 N1         -1.7677   -3.0729    0.7712 N.4       1 CER        -0.8232 
     12 C11        -0.7400   -3.8968    0.1340 C.3       1 CER         0.1634 
     13 C12         0.6653   -3.4577    0.5463 C.3       1 CER        -0.0730 
     14 O1          3.8072   -0.0518    3.6657 O.3       1 CER        -0.3544 
     15 C13         3.4867   -0.9342    4.7390 C.3       1 CER         0.1411 
     16 C14         4.7154   -1.1215    5.6150 C.3       1 CER        -0.1095 
     17 C15         2.3135   -0.3642    5.5206 C.3       1 CER        -0.1095 
     18 N2          6.0390   -0.1569    1.9555 N.pl3     1 CER        -0.7356 
     19 C16         7.3461   -0.5454    1.6075 C.ar      1 CER         0.9194 
     20 N3          8.3513    0.1108    2.2179 N.ar      1 CER        -0.7398 
     21 C17         9.5902   -0.2866    1.8610 C.ar      1 CER         0.4902 
     22 C18         9.8400   -1.2863    0.9431 C.ar      1 CER        -0.3353 
     23 C19         8.7246   -1.8805    0.3891 C.ar      1 CER         0.7253 
     24 N4          7.4582   -1.5337    0.6996 N.ar      1 CER        -0.7907 
     25 N5          8.9040   -2.9155   -0.5613 N.pl3     1 CER        -0.7551 
     26 C20         8.1313   -4.0392   -0.8960 C.ar      1 CER         0.2940 
     27 C21         7.3477   -4.6374    0.0909 C.ar      1 CER        -0.1853 
     28 C22         6.5726   -5.7555   -0.2166 C.ar      1 CER        -0.0419 
     29 C23         6.5810   -6.2755   -1.5109 C.ar      1 CER        -0.1823 
     30 C24         7.3646   -5.6773   -2.4977 C.ar      1 CER        -0.0138 
     31 C25         8.1398   -4.5592   -2.1903 C.ar      1 CER        -0.4367 
     32 S1          9.1117   -3.8390   -3.4562 S.o2      1 CER         1.3667 
     33 O2         10.4262   -3.5581   -2.9006 O.2       1 CER        -0.6585 
     34 O3          8.9890   -4.6501   -4.6578 O.2       1 CER        -0.6585 
     35 C26         8.3127   -2.2870   -3.7905 C.3       1 CER        -0.2715 
     36 C27         6.8813   -2.5228   -4.2446 C.3       1 CER        -0.0754 
     37 C28         9.1052   -1.5028   -4.8239 C.3       1 CER        -0.0754 
     38 Cl1        11.4533   -1.7221    0.5534 Cl        1 CER        -0.0471 
     39 H1          4.1834   -2.0487   -2.0788 H         1 CER         0.0465 
     40 H2          2.4803   -1.4791   -2.1203 H         1 CER         0.0465 
     41 H3          2.8611   -3.1295   -1.5220 H         1 CER         0.0465 
     42 H4          5.4596   -1.1554   -0.4290 H         1 CER         0.1475 
     43 H5          1.5710   -0.9367    2.6504 H         1 CER         0.1464 
     44 H6          0.8756   -1.8310   -0.8498 H         1 CER         0.0540 
     45 H7         -0.1766   -1.1616    1.9482 H         1 CER         0.0513 
     46 H8         -0.1498   -0.0847    0.5108 H         1 CER         0.0513 
     47 H9         -2.4022   -1.0878    0.9345 H         1 CER         0.0273 
     48 H10        -1.7252   -1.5527   -0.6630 H         1 CER         0.0273 
     49 H11        -1.6856   -3.1952    1.8613 H         1 CER         0.3638 
     50 H12        -0.8771   -4.9475    0.4294 H         1 CER         0.0273 
     51 H13        -0.8254   -3.8091   -0.9592 H         1 CER         0.0273 
     52 H14         1.3997   -4.0600   -0.0086 H         1 CER         0.0513 
     53 H15         0.7871   -3.6336    1.6253 H         1 CER         0.0513 
     54 H16         3.2001   -1.8984    4.2937 H         1 CER         0.0552 
     55 H17         4.4737   -1.8017    6.4450 H         1 CER         0.0461 
     56 H18         5.0298   -0.1477    6.0186 H         1 CER         0.0461 
     57 H19         5.5315   -1.5506    5.0151 H         1 CER         0.0461 
     58 H20         2.0620   -1.0413    6.3502 H         1 CER         0.0461 
     59 H21         1.4442   -0.2618    4.8544 H         1 CER         0.0461 
     60 H22         2.5857    0.6229    5.9226 H         1 CER         0.0461 
     61 H23         6.1221    0.6503    2.6981 H         1 CER         0.4752 
     62 H24        10.3954    0.2467    2.3569 H         1 CER         0.0433 
     63 H25         9.7944   -2.9209   -1.2072 H         1 CER         0.4767 
     64 H26         7.3325   -4.2421    1.1036 H         1 CER         0.1692 
     65 H27         5.9636   -6.2220    0.5524 H         1 CER         0.1393 
     66 H28         5.9791   -7.1473   -1.7498 H         1 CER         0.1453 
     67 H29         7.3637   -6.0921   -3.5023 H         1 CER         0.1665 
     68 H30         8.1981   -1.5688   -2.9652 H         1 CER         0.1157 
     69 H31         6.3973   -1.5562   -4.4484 H         1 CER         0.0521 
     70 H32         6.3280   -3.0504   -3.4538 H         1 CER         0.0521 
     71 H33         6.8828   -3.1324   -5.1603 H         1 CER         0.0521 
     72 H34         8.6018   -0.5452   -5.0226 H         1 CER         0.0521 
     73 H35         9.1686   -2.0840   -5.7557 H         1 CER         0.0521 
     74 H36        10.1186   -1.3118   -4.4411 H         1 CER         0.0521 
     75 H75        -2.7542   -3.4258    0.4360 H         1 CER         0.0000 
@<TRIPOS>BOND
     1    1    2 1    
     2    1   39 1    
     3    1   40 1    
     4    1   41 1    
     5    2    7 ar   
     6    2    3 ar   
     7    3    4 ar   
     8    3   42 1    
     9    4    5 ar   
    10    4   18 1    
    11    5    6 ar   
    12    5   14 1    
    13    6    7 ar   
    14    6   43 1    
    15    7    8 1    
    16    8   13 1    
    17    8    9 1    
    18    8   44 1    
    19    9   10 1    
    20    9   45 1    
    21    9   46 1    
    22   10   11 1    
    23   10   47 1    
    24   10   48 1    
    25   11   12 1    
    26   11   49 1    
    27   11   75 1    
    28   12   13 1    
    29   12   50 1    
    30   12   51 1    
    31   13   52 1    
    32   13   53 1    
    33   14   15 1    
    34   15   16 1    
    35   15   17 1    
    36   15   54 1    
    37   16   55 1    
    38   16   56 1    
    39   16   57 1    
    40   17   58 1    
    41   17   59 1    
    42   17   60 1    
    43   18   19 1    
    44   18   61 1    
    45   19   24 ar   
    46   19   20 ar   
    47   20   21 ar   
    48   21   22 ar   
    49   21   62 1    
    50   22   23 ar   
    51   22   38 1    
    52   23   24 ar   
    53   23   25 1    
    54   25   26 1    
    55   25   63 1    
    56   26   31 ar   
    57   26   27 ar   
    58   27   28 ar   
    59   27   64 1    
    60   28   29 ar   
    61   28   65 1    
    62   29   30 ar   
    63   29   66 1    
    64   30   31 ar   
    65   30   67 1    
    66   31   32 1    
    67   32   33 2    
    68   32   34 2    
    69   32   35 1    
    70   35   36 1    
    71   35   37 1    
    72   35   68 1    
    73   36   69 1    
    74   36   70 1    
    75   36   71 1    
    76   37   72 1    
    77   37   73 1    
    78   37   74 1    
@<TRIPOS>SUBSTRUCTURE
     1 CER         1 GROUP             0       ****    0 ROOT    
@<TRIPOS>MOLECULE
5-chloro-~{N}2-[2-isopropoxy-5-methyl-4-(4-piperidyl)phenyl]-~{N}4-(2-isopropylsulfonylphenyl)pyrimidine-2,4-diamine
74   77    1
SMALL
USER_CHARGES


@<TRIPOS>ATOM
      1 C1          3.2107   -2.0875   -1.5667 C.3       1 CER        -0.0562 
      2 C2          3.3563   -1.5514   -0.1804 C.ar      1 CER        -0.0630 
      3 C3          4.6080   -1.1075    0.2462 C.ar      1 CER        -0.1307 
      4 C4          4.7664   -0.6027    1.5368 C.ar      1 CER         0.1580 
      5 C5          3.6731   -0.5417    2.4009 C.ar      1 CER         0.0623 
      6 C6          2.4214   -0.9856    1.9743 C.ar      1 CER        -0.1397 
      7 C7          2.2630   -1.4904    0.6837 C.ar      1 CER        -0.0721 
      8 C8          0.8893   -1.9681    0.2415 C.3       1 CER        -0.0178 
      9 C9         -0.2434   -1.1266    0.8508 C.3       1 CER        -0.0730 
     10 C10        -1.6120   -1.6596    0.4259 C.3       1 CER         0.1634 
     11 N1         -1.7677   -3.0729    0.7712 N.3       1 CER        -0.8232 
     12 C11        -0.7400   -3.8968    0.1340 C.3       1 CER         0.1634 
     13 C12         0.6653   -3.4577    0.5463 C.3       1 CER        -0.0730 
     14 O1          3.8072   -0.0518    3.6657 O.3       1 CER        -0.3544 
     15 C13         3.4867   -0.9342    4.7390 C.3       1 CER         0.1411 
     16 C14         4.7154   -1.1215    5.6150 C.3       1 CER        -0.1095 
     17 C15         2.3135   -0.3642    5.5206 C.3       1 CER        -0.1095 
     18 N2          6.0390   -0.1569    1.9555 N.pl3     1 CER        -0.7356 
     19 C16         7.3461   -0.5454    1.6075 C.ar      1 CER         0.9194 
     20 N3          8.3513    0.1108    2.2179 N.ar      1 CER        -0.7398 
     21 C17         9.5902   -0.2866    1.8610 C.ar      1 CER         0.4902 
     22 C18         9.8400   -1.2863    0.9431 C.ar      1 CER        -0.3353 
     23 C19         8.7246   -1.8805    0.3891 C.ar      1 CER         0.7253 
     24 N4          7.4582   -1.5337    0.6996 N.ar      1 CER        -0.7907 
     25 N5          8.9040   -2.9155   -0.5613 N.pl3     1 CER        -0.7551 
     26 C20         8.1313   -4.0392   -0.8960 C.ar      1 CER         0.2940 
     27 C21         7.3477   -4.6374    0.0909 C.ar      1 CER        -0.1853 
     28 C22         6.5726   -5.7555   -0.2166 C.ar      1 CER        -0.0419 
     29 C23         6.5810   -6.2755   -1.5109 C.ar      1 CER        -0.1823 
     30 C24         7.3646   -5.6773   -2.4977 C.ar      1 CER        -0.0138 
     31 C25         8.1398   -4.5592   -2.1903 C.ar      1 CER        -0.4367 
     32 S1          9.1117   -3.8390   -3.4562 S.o2      1 CER         1.3667 
     33 O2         10.4262   -3.5581   -2.9006 O.2       1 CER        -0.6585 
     34 O3          8.9890   -4.6501   -4.6578 O.2       1 CER        -0.6585 
     35 C26         8.3127   -2.2870   -3.7905 C.3       1 CER        -0.2715 
     36 C27         6.8813   -2.5228   -4.2446 C.3       1 CER        -0.0754 
     37 C28         9.1052   -1.5028   -4.8239 C.3       1 CER        -0.0754 
     38 Cl1        11.4533   -1.7221    0.5534 Cl        1 CER        -0.0471 
     39 H1          4.1834   -2.0487   -2.0788 H         1 CER         0.0465 
     40 H2          2.4803   -1.4791   -2.1203 H         1 CER         0.0465 
     41 H3          2.8611   -3.1295   -1.5220 H         1 CER         0.0465 
     42 H4          5.4596   -1.1554   -0.4290 H         1 CER         0.1475 
     43 H5          1.5710   -0.9367    2.6504 H         1 CER         0.1464 
     44 H6          0.8756   -1.8310   -0.8498 H         1 CER         0.0540 
     45 H7         -0.1766   -1.1616    1.9482 H         1 CER         0.0513 
     46 H8         -0.1498   -0.0847    0.5108 H         1 CER         0.0513 
     47 H9         -2.4022   -1.0878    0.9345 H         1 CER         0.0273 
     48 H10        -1.7252   -1.5527   -0.6630 H         1 CER         0.0273 
     49 H11        -1.6856   -3.1952    1.8613 H         1 CER         0.3638 
     50 H12        -0.8771   -4.9475    0.4294 H         1 CER         0.0273 
     51 H13        -0.8254   -3.8091   -0.9592 H         1 CER         0.0273 
     52 H14         1.3997   -4.0600   -0.0086 H         1 CER         0.0513 
     53 H15         0.7871   -3.6336    1.6253 H         1 CER         0.0513 
     54 H16         3.2001   -1.8984    4.2937 H         1 CER         0.0552 
     55 H17         4.4737   -1.8017    6.4450 H         1 CER         0.0461 
     56 H18         5.0298   -0.1477    6.0186 H         1 CER         0.0461 
     57 H19         5.5315   -1.5506    5.0151 H         1 CER         0.0461 
     58 H20         2.0620   -1.0413    6.3502 H         1 CER         0.0461 
     59 H21         1.4442   -0.2618    4.8544 H         1 CER         0.0461 
     60 H22         2.5857    0.6229    5.9226 H         1 CER         0.0461 
     61 H23         6.1221    0.6503    2.6981 H         1 CER         0.4752 
     62 H24        10.3954    0.2467    2.3569 H         1 CER         0.0433 
     63 H25         9.7944   -2.9209   -1.2072 H         1 CER         0.4767 
     64 H26         7.3325   -4.2421    1.1036 H         1 CER         0.1692 
     65 H27         5.9636   -6.2220    0.5524 H         1 CER         0.1393 
     66 H28         5.9791   -7.1473   -1.7498 H         1 CER         0.1453 
     67 H29         7.3637   -6.0921   -3.5023 H         1 CER         0.1665 
     68 H30         8.1981   -1.5688   -2.9652 H         1 CER         0.1157 
     69 H31         6.3973   -1.5562   -4.4484 H         1 CER         0.0521 
     70 H32         6.3280   -3.0504   -3.4538 H         1 CER         0.0521 
     71 H33         6.8828   -3.1324   -5.1603 H         1 CER         0.0521 
     72 H34         8.6018   -0.5452   -5.0226 H         1 CER         0.0521 
     73 H35         9.1686   -2.0840   -5.7557 H         1 CER         0.0521 
     74 H36        10.1186   -1.3118   -4.4411 H         1 CER         0.0521 
@<TRIPOS>BOND
     1    1    2 1    
     2    1   39 1    
     3    1   40 1    
     4    1   41 1    
     5    2    7 ar   
     6    2    3 ar   
     7    3    4 ar   
     8    3   42 1    
     9    4    5 ar   
    10    4   18 1    
    11    5    6 ar   
    12    5   14 1    
    13    6    7 ar   
    14    6   43 1    
    15    7    8 1    
    16    8   13 1    
    17    8    9 1    
    18    8   44 1    
    19    9   10 1    
    20    9   45 1    
    21    9   46 1    
    22   10   11 1    
    23   10   47 1    
    24   10   48 1    
    25   11   12 1    
    26   11   49 1    
    27   12   13 1    
    28   12   50 1    
    29   12   51 1    
    30   13   52 1    
    31   13   53 1    
    32   14   15 1    
    33   15   16 1    
    34   15   17 1    
    35   15   54 1    
    36   16   55 1    
    37   16   56 1    
    38   16   57 1    
    39   17   58 1    
    40   17   59 1    
    41   17   60 1    
    42   18   19 1    
    43   18   61 1    
    44   19   24 ar   
    45   19   20 ar   
    46   20   21 ar   
    47   21   22 ar   
    48   21   62 1    
    49   22   23 ar   
    50   22   38 1    
    51   23   24 ar   
    52   23   25 1    
    53   25   26 1    
    54   25   63 1    
    55   26   31 ar   
    56   26   27 ar   
    57   27   28 ar   
    58   27   64 1    
    59   28   29 ar   
    60   28   65 1    
    61   29   30 ar   
    62   29   66 1    
    63   30   31 ar   
    64   30   67 1    
    65   31   32 1    
    66   32   33 2    
    67   32   34 2    
    68   32   35 1    
    69   35   36 1    
    70   35   37 1    
    71   35   68 1    
    72   36   69 1    
    73   36   70 1    
    74   36   71 1    
    75   37   72 1    
    76   37   73 1    
    77   37   74 1    
@<TRIPOS>SUBSTRUCTURE
     1 CER         1 GROUP             0       ****    0 ROOT    
@<TRIPOS>MOLECULE
5-chloro-~{N}2-[2-isopropoxy-5-methyl-4-(4-piperidyl)phenyl]-~{N}4-(2-isopropylsulfonylphenyl)pyrimidine-2,4-diamine
76   79    1
SMALL
USER_CHARGES


@<TRIPOS>ATOM
      1 C1          3.2114   -2.0849   -1.5694 C.3       1 CER        -0.0562 
      2 C2          3.3567   -1.5490   -0.1830 C.ar      1 CER        -0.0630 
      3 C3          4.6084   -1.1056    0.2442 C.ar      1 CER        -0.1307 
      4 C4          4.7664   -0.6010    1.5349 C.ar      1 CER         0.1580 
      5 C5          3.6728   -0.5396    2.3986 C.ar      1 CER         0.0623 
      6 C6          2.4211   -0.9830    1.9714 C.ar      1 CER        -0.1397 
      7 C7          2.2630   -1.4876    0.6807 C.ar      1 CER        -0.0721 
      8 C8          0.8893   -1.9647    0.2379 C.3       1 CER        -0.0178 
      9 C9         -0.2433   -1.1229    0.8468 C.3       1 CER        -0.0730 
     10 C10        -1.6119   -1.6553    0.4212 C.3       1 CER         0.1634 
     11 N1         -1.7683   -3.0686    0.7663 N.4       1 CER        -0.8232 
     12 C11        -0.7407   -3.8928    0.1295 C.3       1 CER         0.1634 
     13 C12         0.6646   -3.4543    0.5424 C.3       1 CER        -0.0730 
     14 O1          3.8065   -0.0499    3.6635 O.3       1 CER        -0.3544 
     15 C13         3.4852   -0.9323    4.7365 C.3       1 CER         0.1411 
     16 C14         4.7135   -1.1201    5.6130 C.3       1 CER        -0.1095 
     17 C15         2.3119   -0.3619    5.5177 C.3       1 CER        -0.1095 
     18 N2          6.0390   -0.1557    1.9542 N.pl3     1 CER        -0.7356 
     19 C16         7.3461   -0.5447    1.6067 C.ar      1 CER         0.9194 
     20 N3          8.3513    0.1108    2.2179 N.pl3     1 CER        -0.7398 
     21 C17         9.5902   -0.2868    1.8612 C.ar      1 CER         0.4902 
     22 C18         9.8400   -1.2863    0.9431 C.ar      1 CER        -0.3353 
     23 C19         8.7246   -1.8802    0.3888 C.ar      1 CER         0.7253 
     24 N4          7.4582   -1.5329    0.6988 N.2       1 CER        -0.7907 
     25 N5          8.9040   -2.9152   -0.5617 N.pl3     1 CER        -0.7551 
     26 C20         8.1311   -4.0387   -0.8966 C.ar      1 CER         0.2940 
     27 C21         7.3471   -4.6367    0.0900 C.ar      1 CER        -0.1853 
     28 C22         6.5718   -5.7546   -0.2178 C.ar      1 CER        -0.0419 
     29 C23         6.5804   -6.2745   -1.5121 C.ar      1 CER        -0.1823 
     30 C24         7.3644   -5.6765   -2.4987 C.ar      1 CER        -0.0138 
     31 C25         8.1398   -4.5586   -2.1910 C.ar      1 CER        -0.4367 
     32 S1          9.1123   -3.8385   -3.4566 S.o2      1 CER         1.3667 
     33 O2         10.4267   -3.5580   -2.9006 O.2       1 CER        -0.6585 
     34 O3          8.9897   -4.6495   -4.6583 O.2       1 CER        -0.6585 
     35 C26         8.3137   -2.2863   -3.7910 C.3       1 CER        -0.2715 
     36 C27         6.8824   -2.5217   -4.2455 C.3       1 CER        -0.0754 
     37 C28         9.1067   -1.5022   -4.8241 C.3       1 CER        -0.0754 
     38 Cl1        11.4533   -1.7221    0.5534 Cl        1 CER        -0.0471 
     39 H1          4.1844   -2.0464   -2.0811 H         1 CER         0.0465 
     40 H2          2.4816   -1.4761   -2.1232 H         1 CER         0.0465 
     41 H3          2.8614   -3.1267   -1.5249 H         1 CER         0.0465 
     42 H4          5.4602   -1.1537   -0.4306 H         1 CER         0.1475 
     43 H5          1.5704   -0.9338    2.6471 H         1 CER         0.1464 
     44 H6          0.8762   -1.8275   -0.8535 H         1 CER         0.0540 
     45 H7         -0.1770   -1.1580    1.9442 H         1 CER         0.0513 
     46 H8         -0.1491   -0.0809    0.5069 H         1 CER         0.0513 
     47 H9         -2.4021   -1.0833    0.9296 H         1 CER         0.0273 
     48 H10        -1.7246   -1.5483   -0.6677 H         1 CER         0.0273 
     49 H11        -1.6867   -3.1910    1.8564 H         1 CER         0.3638 
     50 H12        -0.8783   -4.9435    0.4247 H         1 CER         0.0273 
     51 H13        -0.8256   -3.8050   -0.9637 H         1 CER         0.0273 
     52 H14         1.3991   -4.0568   -0.0122 H         1 CER         0.0513 
     53 H15         0.7859   -3.6303    1.6215 H         1 CER         0.0513 
     54 H16         3.1985   -1.8963    4.2910 H         1 CER         0.0552 
     55 H17         4.4712   -1.8003    6.4429 H         1 CER         0.0461 
     56 H18         5.0281   -0.1465    6.0169 H         1 CER         0.0461 
     57 H19         5.5297   -1.5495    5.0134 H         1 CER         0.0461 
     58 H20         2.0598   -1.0390    6.3471 H         1 CER         0.0461 
     59 H21         1.4429   -0.2591    4.8511 H         1 CER         0.0461 
     60 H22         2.5843    0.6250    5.9199 H         1 CER         0.0461 
     61 H23         5.8812    0.6463    2.6903 H         1 CER         0.4752 
     62 H24        10.3514    0.1876    2.3034 H         1 CER         0.0433 
     63 H25         8.1279    0.9040    2.9466 H         1 CER         0.4767 
     64 H26         7.3317   -4.2415    1.1027 H         1 CER         0.1692 
     65 H27         5.9625   -6.2210    0.5510 H         1 CER         0.1393 
     66 H28         5.9784   -7.1462   -1.7512 H         1 CER         0.1453 
     67 H29         7.3637   -6.0912   -3.5033 H         1 CER         0.1665 
     68 H30         8.1991   -1.5681   -2.9657 H         1 CER         0.1157 
     69 H31         6.3987   -1.5550   -4.4493 H         1 CER         0.0521 
     70 H32         6.3287   -3.0493   -3.4548 H         1 CER         0.0521 
     71 H33         6.8840   -3.1312   -5.1612 H         1 CER         0.0521 
     72 H34         8.6036   -0.5445   -5.0229 H         1 CER         0.0521 
     73 H35         9.1703   -2.0834   -5.7559 H         1 CER         0.0521 
     74 H36        10.1201   -1.3115   -4.4411 H         1 CER         0.0521 
     75 H75         9.7946   -2.9207   -1.2073 H         1 CER         0.0000 
     76 H76        -2.7548   -3.4210    0.4306 H         1 CER         0.0000 
@<TRIPOS>BOND
     1    1    2 1    
     2    1   39 1    
     3    1   40 1    
     4    1   41 1    
     5    2    7 ar   
     6    2    3 ar   
     7    3    4 ar   
     8    3   42 1    
     9    4    5 ar   
    10    4   18 1    
    11    5    6 ar   
    12    5   14 1    
    13    6    7 ar   
    14    6   43 1    
    15    7    8 1    
    16    8   13 1    
    17    8    9 1    
    18    8   44 1    
    19    9   10 1    
    20    9   45 1    
    21    9   46 1    
    22   10   11 1    
    23   10   47 1    
    24   10   48 1    
    25   11   12 1    
    26   11   49 1    
    27   11   76 1    
    28   12   13 1    
    29   12   50 1    
    30   12   51 1    
    31   13   52 1    
    32   13   53 1    
    33   14   15 1    
    34   15   16 1    
    35   15   17 1    
    36   15   54 1    
    37   16   55 1    
    38   16   56 1    
    39   16   57 1    
    40   17   58 1    
    41   17   59 1    
    42   17   60 1    
    43   18   19 1    
    44   18   61 1    
    45   19   24 ar   
    46   19   20 ar   
    47   20   63 1    
    48   20   21 ar   
    49   21   22 ar   
    50   21   62 1    
    51   22   38 1    
    52   22   23 ar   
    53   23   25 2    
    54   23   24 ar   
    55   25   26 1    
    56   25   75 1    
    57   26   31 ar   
    58   26   27 ar   
    59   27   28 ar   
    60   27   64 1    
    61   28   29 ar   
    62   28   65 1    
    63   29   30 ar   
    64   29   66 1    
    65   30   31 ar   
    66   30   67 1    
    67   31   32 1    
    68   32   33 2    
    69   32   34 2    
    70   32   35 1    
    71   35   36 1    
    72   35   37 1    
    73   35   68 1    
    74   36   69 1    
    75   36   70 1    
    76   36   71 1    
    77   37   72 1    
    78   37   73 1    
    79   37   74 1    
@<TRIPOS>SUBSTRUCTURE
     1 CER         1 GROUP             0       ****    0 ROOT    
@<TRIPOS>MOLECULE
5-chloro-~{N}2-[2-isopropoxy-5-methyl-4-(4-piperidyl)phenyl]-~{N}4-(2-isopropylsulfonylphenyl)pyrimidine-2,4-diamine
76   79    1
SMALL
USER_CHARGES


@<TRIPOS>ATOM
      1 C1          3.2114   -2.0849   -1.5694 C.3       1 CER        -0.0562 
      2 C2          3.3567   -1.5490   -0.1830 C.ar      1 CER        -0.0630 
      3 C3          4.6084   -1.1056    0.2442 C.ar      1 CER        -0.1307 
      4 C4          4.7664   -0.6010    1.5349 C.ar      1 CER         0.1580 
      5 C5          3.6728   -0.5396    2.3986 C.ar      1 CER         0.0623 
      6 C6          2.4211   -0.9830    1.9714 C.ar      1 CER        -0.1397 
      7 C7          2.2630   -1.4876    0.6807 C.ar      1 CER        -0.0721 
      8 C8          0.8893   -1.9647    0.2379 C.3       1 CER        -0.0178 
      9 C9         -0.2433   -1.1229    0.8468 C.3       1 CER        -0.0730 
     10 C10        -1.6119   -1.6553    0.4212 C.3       1 CER         0.1634 
     11 N1         -1.7683   -3.0686    0.7663 N.4       1 CER        -0.8232 
     12 C11        -0.7407   -3.8928    0.1295 C.3       1 CER         0.1634 
     13 C12         0.6646   -3.4543    0.5424 C.3       1 CER        -0.0730 
     14 O1          3.8065   -0.0499    3.6635 O.3       1 CER        -0.3544 
     15 C13         3.4852   -0.9323    4.7365 C.3       1 CER         0.1411 
     16 C14         4.7135   -1.1201    5.6130 C.3       1 CER        -0.1095 
     17 C15         2.3119   -0.3619    5.5177 C.3       1 CER        -0.1095 
     18 N2          6.0390   -0.1557    1.9542 N.pl3     1 CER        -0.7356 
     19 C16         7.3461   -0.5447    1.6067 C.ar      1 CER         0.9194 
     20 N3          8.3513    0.1108    2.2179 N.pl3     1 CER        -0.7398 
     21 C17         9.5902   -0.2868    1.8612 C.ar      1 CER         0.4902 
     22 C18         9.8400   -1.2863    0.9431 C.ar      1 CER        -0.3353 
     23 C19         8.7246   -1.8802    0.3888 C.ar      1 CER         0.7253 
     24 N4          7.4582   -1.5329    0.6988 N.2       1 CER        -0.7907 
     25 N5          8.9040   -2.9152   -0.5617 N.pl3     1 CER        -0.7551 
     26 C20         9.9169   -3.1765   -1.4984 C.ar      1 CER         0.2940 
     27 C21        10.6188   -2.1046   -2.0499 C.ar      1 CER        -0.1853 
     28 C22        11.6284   -2.3385   -2.9834 C.ar      1 CER        -0.0419 
     29 C23        11.9362   -3.6442   -3.3655 C.ar      1 CER        -0.1823 
     30 C24        11.2344   -4.7160   -2.8141 C.ar      1 CER        -0.0138 
     31 C25        10.2247   -4.4823   -1.8805 C.ar      1 CER        -0.4367 
     32 S1          9.3653   -5.8543   -1.2137 S.o2      1 CER         1.3667 
     33 O2          7.9466   -5.5335   -1.2174 O.2       1 CER        -0.6585 
     34 O3          9.8382   -7.0646   -1.8681 O.2       1 CER        -0.6585 
     35 C26         9.9077   -5.9294    0.4772 C.3       1 CER        -0.2715 
     36 C27        11.4140   -6.1261    0.5349 C.3       1 CER        -0.0754 
     37 C28         9.1707   -7.0360    1.2141 C.3       1 CER        -0.0754 
     38 Cl1        11.4533   -1.7221    0.5534 Cl        1 CER        -0.0471 
     39 H1          4.1844   -2.0464   -2.0811 H         1 CER         0.0465 
     40 H2          2.4816   -1.4761   -2.1232 H         1 CER         0.0465 
     41 H3          2.8614   -3.1267   -1.5249 H         1 CER         0.0465 
     42 H4          5.4602   -1.1537   -0.4306 H         1 CER         0.1475 
     43 H5          1.5704   -0.9338    2.6471 H         1 CER         0.1464 
     44 H6          0.8762   -1.8275   -0.8535 H         1 CER         0.0540 
     45 H7         -0.1770   -1.1580    1.9442 H         1 CER         0.0513 
     46 H8         -0.1491   -0.0809    0.5069 H         1 CER         0.0513 
     47 H9         -2.4021   -1.0833    0.9296 H         1 CER         0.0273 
     48 H10        -1.7246   -1.5483   -0.6677 H         1 CER         0.0273 
     49 H11        -1.6867   -3.1910    1.8564 H         1 CER         0.3638 
     50 H12        -0.8783   -4.9435    0.4247 H         1 CER         0.0273 
     51 H13        -0.8256   -3.8050   -0.9637 H         1 CER         0.0273 
     52 H14         1.3991   -4.0568   -0.0122 H         1 CER         0.0513 
     53 H15         0.7859   -3.6303    1.6215 H         1 CER         0.0513 
     54 H16         3.1985   -1.8963    4.2910 H         1 CER         0.0552 
     55 H17         4.4712   -1.8003    6.4429 H         1 CER         0.0461 
     56 H18         5.0281   -0.1465    6.0169 H         1 CER         0.0461 
     57 H19         5.5297   -1.5495    5.0134 H         1 CER         0.0461 
     58 H20         2.0598   -1.0390    6.3471 H         1 CER         0.0461 
     59 H21         1.4429   -0.2591    4.8511 H         1 CER         0.0461 
     60 H22         2.5843    0.6250    5.9199 H         1 CER         0.0461 
     61 H23         5.8812    0.6463    2.6903 H         1 CER         0.4752 
     62 H24        10.3514    0.1876    2.3034 H         1 CER         0.0433 
     63 H25         8.1279    0.9040    2.9466 H         1 CER         0.4767 
     64 H26        10.3885   -1.0821   -1.7607 H         1 CER         0.1692 
     65 H27        12.1739   -1.5035   -3.4138 H         1 CER         0.1393 
     66 H28        12.7209   -3.8261   -4.0939 H         1 CER         0.1453 
     67 H29        11.4825   -5.7289   -3.1204 H         1 CER         0.1665 
     68 H30         9.7455   -5.0505    1.1184 H         1 CER         0.1157 
     69 H31        11.7379   -6.1710    1.5852 H         1 CER         0.0521 
     70 H32        11.9132   -5.2841    0.0330 H         1 CER         0.0521 
     71 H33        11.6808   -7.0653    0.0284 H         1 CER         0.0521 
     72 H34         9.5142   -7.0731    2.2584 H         1 CER         0.0521 
     73 H35         9.3751   -8.0006    0.7264 H         1 CER         0.0521 
     74 H36         8.0894   -6.8351    1.1907 H         1 CER         0.0521 
     75 H75         8.1527   -3.7133   -0.6541 H         1 CER         0.0000 
     76 H76        -2.7548   -3.4210    0.4306 H         1 CER         0.0000 
@<TRIPOS>BOND
     1    1    2 1    
     2    1   39 1    
     3    1   40 1    
     4    1   41 1    
     5    2    7 ar   
     6    2    3 ar   
     7    3    4 ar   
     8    3   42 1    
     9    4    5 ar   
    10    4   18 1    
    11    5    6 ar   
    12    5   14 1    
    13    6    7 ar   
    14    6   43 1    
    15    7    8 1    
    16    8   13 1    
    17    8    9 1    
    18    8   44 1    
    19    9   10 1    
    20    9   45 1    
    21    9   46 1    
    22   10   11 1    
    23   10   47 1    
    24   10   48 1    
    25   11   12 1    
    26   11   49 1    
    27   11   76 1    
    28   12   13 1    
    29   12   50 1    
    30   12   51 1    
    31   13   52 1    
    32   13   53 1    
    33   14   15 1    
    34   15   16 1    
    35   15   17 1    
    36   15   54 1    
    37   16   55 1    
    38   16   56 1    
    39   16   57 1    
    40   17   58 1    
    41   17   59 1    
    42   17   60 1    
    43   18   19 1    
    44   18   61 1    
    45   19   24 ar   
    46   19   20 ar   
    47   20   63 1    
    48   20   21 ar   
    49   21   22 ar   
    50   21   62 1    
    51   22   38 1    
    52   22   23 ar   
    53   23   25 2    
    54   23   24 ar   
    55   25   26 1    
    56   25   75 1    
    57   26   31 ar   
    58   26   27 ar   
    59   27   28 ar   
    60   27   64 1    
    61   28   29 ar   
    62   28   65 1    
    63   29   30 ar   
    64   29   66 1    
    65   30   31 ar   
    66   30   67 1    
    67   31   32 1    
    68   32   33 2    
    69   32   34 2    
    70   32   35 1    
    71   35   36 1    
    72   35   37 1    
    73   35   68 1    
    74   36   69 1    
    75   36   70 1    
    76   36   71 1    
    77   37   72 1    
    78   37   73 1    
    79   37   74 1    
@<TRIPOS>SUBSTRUCTURE
     1 CER         1 GROUP             0       ****    0 ROOT    
@<TRIPOS>MOLECULE
5-chloro-~{N}2-[2-isopropoxy-5-methyl-4-(4-piperidyl)phenyl]-~{N}4-(2-isopropylsulfonylphenyl)pyrimidine-2,4-diamine
76   79    1
SMALL
USER_CHARGES


@<TRIPOS>ATOM
      1 C1          3.2107   -2.0875   -1.5667 C.3       1 CER        -0.0562 
      2 C2          3.3563   -1.5514   -0.1804 C.ar      1 CER        -0.0630 
      3 C3          4.6080   -1.1075    0.2462 C.ar      1 CER        -0.1307 
      4 C4          4.7664   -0.6027    1.5368 C.ar      1 CER         0.1580 
      5 C5          3.6731   -0.5417    2.4009 C.ar      1 CER         0.0623 
      6 C6          2.4214   -0.9856    1.9743 C.ar      1 CER        -0.1397 
      7 C7          2.2630   -1.4904    0.6837 C.ar      1 CER        -0.0721 
      8 C8          0.8893   -1.9681    0.2415 C.3       1 CER        -0.0178 
      9 C9         -0.2434   -1.1266    0.8508 C.3       1 CER        -0.0730 
     10 C10        -1.6120   -1.6596    0.4259 C.3       1 CER         0.1634 
     11 N1         -1.7677   -3.0729    0.7712 N.4       1 CER        -0.8232 
     12 C11        -0.7400   -3.8968    0.1340 C.3       1 CER         0.1634 
     13 C12         0.6653   -3.4577    0.5463 C.3       1 CER        -0.0730 
     14 O1          3.8072   -0.0518    3.6657 O.3       1 CER        -0.3544 
     15 C13         3.4867   -0.9342    4.7390 C.3       1 CER         0.1411 
     16 C14         4.7154   -1.1215    5.6150 C.3       1 CER        -0.1095 
     17 C15         2.3135   -0.3642    5.5206 C.3       1 CER        -0.1095 
     18 N2          6.0390   -0.1569    1.9555 N.pl3     1 CER        -0.7356 
     19 C16         7.3461   -0.5454    1.6075 C.ar      1 CER         0.9194 
     20 N3          8.3513    0.1108    2.2179 N.pl3     1 CER        -0.7398 
     21 C17         9.5902   -0.2866    1.8610 C.ar      1 CER         0.4902 
     22 C18         9.8400   -1.2863    0.9431 C.ar      1 CER        -0.3353 
     23 C19         8.7246   -1.8805    0.3891 C.ar      1 CER         0.7253 
     24 N4          7.4582   -1.5337    0.6996 N.ar      1 CER        -0.7907 
     25 N5          8.9040   -2.9155   -0.5613 N.pl3     1 CER        -0.7551 
     26 C20         8.1313   -4.0392   -0.8960 C.ar      1 CER         0.2940 
     27 C21         7.3477   -4.6374    0.0909 C.ar      1 CER        -0.1853 
     28 C22         6.5726   -5.7555   -0.2166 C.ar      1 CER        -0.0419 
     29 C23         6.5810   -6.2755   -1.5109 C.ar      1 CER        -0.1823 
     30 C24         7.3646   -5.6773   -2.4977 C.ar      1 CER        -0.0138 
     31 C25         8.1398   -4.5592   -2.1903 C.ar      1 CER        -0.4367 
     32 S1          9.1117   -3.8390   -3.4562 S.o2      1 CER         1.3667 
     33 O2         10.4262   -3.5581   -2.9006 O.2       1 CER        -0.6585 
     34 O3          8.9890   -4.6501   -4.6578 O.2       1 CER        -0.6585 
     35 C26         8.3127   -2.2870   -3.7905 C.3       1 CER        -0.2715 
     36 C27         6.8813   -2.5228   -4.2446 C.3       1 CER        -0.0754 
     37 C28         9.1052   -1.5028   -4.8239 C.3       1 CER        -0.0754 
     38 Cl1        11.4533   -1.7221    0.5534 Cl        1 CER        -0.0471 
     39 H1          4.1834   -2.0487   -2.0788 H         1 CER         0.0465 
     40 H2          2.4803   -1.4791   -2.1203 H         1 CER         0.0465 
     41 H3          2.8611   -3.1295   -1.5220 H         1 CER         0.0465 
     42 H4          5.4596   -1.1554   -0.4290 H         1 CER         0.1475 
     43 H5          1.5710   -0.9367    2.6504 H         1 CER         0.1464 
     44 H6          0.8756   -1.8310   -0.8498 H         1 CER         0.0540 
     45 H7         -0.1766   -1.1616    1.9482 H         1 CER         0.0513 
     46 H8         -0.1498   -0.0847    0.5108 H         1 CER         0.0513 
     47 H9         -2.4022   -1.0878    0.9345 H         1 CER         0.0273 
     48 H10        -1.7252   -1.5527   -0.6630 H         1 CER         0.0273 
     49 H11        -1.6856   -3.1952    1.8613 H         1 CER         0.3638 
     50 H12        -0.8771   -4.9475    0.4294 H         1 CER         0.0273 
     51 H13        -0.8254   -3.8091   -0.9592 H         1 CER         0.0273 
     52 H14         1.3997   -4.0600   -0.0086 H         1 CER         0.0513 
     53 H15         0.7871   -3.6336    1.6253 H         1 CER         0.0513 
     54 H16         3.2001   -1.8984    4.2937 H         1 CER         0.0552 
     55 H17         4.4737   -1.8017    6.4450 H         1 CER         0.0461 
     56 H18         5.0298   -0.1477    6.0186 H         1 CER         0.0461 
     57 H19         5.5315   -1.5506    5.0151 H         1 CER         0.0461 
     58 H20         2.0620   -1.0413    6.3502 H         1 CER         0.0461 
     59 H21         1.4442   -0.2618    4.8544 H         1 CER         0.0461 
     60 H22         2.5857    0.6229    5.9226 H         1 CER         0.0461 
     61 H23         6.1221    0.6503    2.6981 H         1 CER         0.4752 
     62 H24        10.3954    0.2467    2.3569 H         1 CER         0.0433 
     63 H25         9.7944   -2.9209   -1.2072 H         1 CER         0.4767 
     64 H26         7.3325   -4.2421    1.1036 H         1 CER         0.1692 
     65 H27         5.9636   -6.2220    0.5524 H         1 CER         0.1393 
     66 H28         5.9791   -7.1473   -1.7498 H         1 CER         0.1453 
     67 H29         7.3637   -6.0921   -3.5023 H         1 CER         0.1665 
     68 H30         8.1981   -1.5688   -2.9652 H         1 CER         0.1157 
     69 H31         6.3973   -1.5562   -4.4484 H         1 CER         0.0521 
     70 H32         6.3280   -3.0504   -3.4538 H         1 CER         0.0521 
     71 H33         6.8828   -3.1324   -5.1603 H         1 CER         0.0521 
     72 H34         8.6018   -0.5452   -5.0226 H         1 CER         0.0521 
     73 H35         9.1686   -2.0840   -5.7557 H         1 CER         0.0521 
     74 H36        10.1186   -1.3118   -4.4411 H         1 CER         0.0521 
     75 H75        -2.7542   -3.4258    0.4360 H         1 CER         0.0000 
     76 H76         8.1279    0.9044    2.9461 H         1 CER         0.0000 
@<TRIPOS>BOND
     1    1    2 1    
     2    1   39 1    
     3    1   40 1    
     4    1   41 1    
     5    2    7 ar   
     6    2    3 ar   
     7    3    4 ar   
     8    3   42 1    
     9    4    5 ar   
    10    4   18 1    
    11    5    6 ar   
    12    5   14 1    
    13    6    7 ar   
    14    6   43 1    
    15    7    8 1    
    16    8   13 1    
    17    8    9 1    
    18    8   44 1    
    19    9   10 1    
    20    9   45 1    
    21    9   46 1    
    22   10   11 1    
    23   10   47 1    
    24   10   48 1    
    25   11   12 1    
    26   11   49 1    
    27   11   75 1    
    28   12   13 1    
    29   12   50 1    
    30   12   51 1    
    31   13   52 1    
    32   13   53 1    
    33   14   15 1    
    34   15   16 1    
    35   15   17 1    
    36   15   54 1    
    37   16   55 1    
    38   16   56 1    
    39   16   57 1    
    40   17   58 1    
    41   17   59 1    
    42   17   60 1    
    43   18   19 1    
    44   18   61 1    
    45   19   24 ar   
    46   19   20 ar   
    47   20   21 ar   
    48   20   76 1    
    49   21   22 ar   
    50   21   62 1    
    51   22   23 ar   
    52   22   38 1    
    53   23   24 ar   
    54   23   25 1    
    55   25   26 1    
    56   25   63 1    
    57   26   31 ar   
    58   26   27 ar   
    59   27   28 ar   
    60   27   64 1    
    61   28   29 ar   
    62   28   65 1    
    63   29   30 ar   
    64   29   66 1    
    65   30   31 ar   
    66   30   67 1    
    67   31   32 1    
    68   32   33 2    
    69   32   34 2    
    70   32   35 1    
    71   35   36 1    
    72   35   37 1    
    73   35   68 1    
    74   36   69 1    
    75   36   70 1    
    76   36   71 1    
    77   37   72 1    
    78   37   73 1    
    79   37   74 1    
@<TRIPOS>SUBSTRUCTURE
     1 CER         1 GROUP             0       ****    0 ROOT    
@<TRIPOS>MOLECULE
5-chloro-~{N}2-[2-isopropoxy-5-methyl-4-(4-piperidyl)phenyl]-~{N}4-(2-isopropylsulfonylphenyl)pyrimidine-2,4-diamine
74   77    1
SMALL
USER_CHARGES


@<TRIPOS>ATOM
      1 C1          3.2107   -2.0875   -1.5667 C.3       1 CER        -0.0562 
      2 C2          3.3563   -1.5514   -0.1804 C.ar      1 CER        -0.0630 
      3 C3          4.6080   -1.1075    0.2462 C.ar      1 CER        -0.1307 
      4 C4          4.7664   -0.6027    1.5368 C.ar      1 CER         0.1580 
      5 C5          3.6731   -0.5417    2.4009 C.ar      1 CER         0.0623 
      6 C6          2.4214   -0.9856    1.9743 C.ar      1 CER        -0.1397 
      7 C7          2.2630   -1.4904    0.6837 C.ar      1 CER        -0.0721 
      8 C8          0.8893   -1.9681    0.2415 C.3       1 CER        -0.0178 
      9 C9         -0.2434   -1.1266    0.8508 C.3       1 CER        -0.0730 
     10 C10        -1.6120   -1.6596    0.4259 C.3       1 CER         0.1634 
     11 N1         -1.7677   -3.0729    0.7712 N.4       1 CER        -0.8232 
     12 C11        -0.7400   -3.8968    0.1340 C.3       1 CER         0.1634 
     13 C12         0.6653   -3.4577    0.5463 C.3       1 CER        -0.0730 
     14 O1          3.8072   -0.0518    3.6657 O.3       1 CER        -0.3544 
     15 C13         3.4867   -0.9342    4.7390 C.3       1 CER         0.1411 
     16 C14         4.7154   -1.1215    5.6150 C.3       1 CER        -0.1095 
     17 C15         2.3135   -0.3642    5.5206 C.3       1 CER        -0.1095 
     18 N2          6.0390   -0.1569    1.9555 N.2       1 CER        -0.7356 
     19 C16         7.3461   -0.5454    1.6075 C.ar      1 CER         0.9194 
     20 N3          8.3513    0.1108    2.2179 N.ar      1 CER        -0.7398 
     21 C17         9.5902   -0.2866    1.8610 C.ar      1 CER         0.4902 
     22 C18         9.8400   -1.2863    0.9431 C.ar      1 CER        -0.3353 
     23 C19         8.7246   -1.8805    0.3891 C.ar      1 CER         0.7253 
     24 N4          7.4582   -1.5337    0.6996 N.ar      1 CER        -0.7907 
     25 N5          8.9040   -2.9155   -0.5613 N.pl3     1 CER        -0.7551 
     26 C20         8.1313   -4.0392   -0.8960 C.ar      1 CER         0.2940 
     27 C21         7.3477   -4.6374    0.0909 C.ar      1 CER        -0.1853 
     28 C22         6.5726   -5.7555   -0.2166 C.ar      1 CER        -0.0419 
     29 C23         6.5810   -6.2755   -1.5109 C.ar      1 CER        -0.1823 
     30 C24         7.3646   -5.6773   -2.4977 C.ar      1 CER        -0.0138 
     31 C25         8.1398   -4.5592   -2.1903 C.ar      1 CER        -0.4367 
     32 S1          9.1117   -3.8390   -3.4562 S.o2      1 CER         1.3667 
     33 O2         10.4262   -3.5581   -2.9006 O.2       1 CER        -0.6585 
     34 O3          8.9890   -4.6501   -4.6578 O.2       1 CER        -0.6585 
     35 C26         8.3127   -2.2870   -3.7905 C.3       1 CER        -0.2715 
     36 C27         6.8813   -2.5228   -4.2446 C.3       1 CER        -0.0754 
     37 C28         9.1052   -1.5028   -4.8239 C.3       1 CER        -0.0754 
     38 Cl1        11.4533   -1.7221    0.5534 Cl        1 CER        -0.0471 
     39 H1          4.1834   -2.0487   -2.0788 H         1 CER         0.0465 
     40 H2          2.4803   -1.4791   -2.1203 H         1 CER         0.0465 
     41 H3          2.8611   -3.1295   -1.5220 H         1 CER         0.0465 
     42 H4          5.4596   -1.1554   -0.4290 H         1 CER         0.1475 
     43 H5          1.5710   -0.9367    2.6504 H         1 CER         0.1464 
     44 H6          0.8756   -1.8310   -0.8498 H         1 CER         0.0540 
     45 H7         -0.1766   -1.1616    1.9482 H         1 CER         0.0513 
     46 H8         -0.1498   -0.0847    0.5108 H         1 CER         0.0513 
     47 H9         -2.4022   -1.0878    0.9345 H         1 CER         0.0273 
     48 H10        -1.7252   -1.5527   -0.6630 H         1 CER         0.0273 
     49 H11        -1.6856   -3.1952    1.8613 H         1 CER         0.3638 
     50 H12        -0.8771   -4.9475    0.4294 H         1 CER         0.0273 
     51 H13        -0.8254   -3.8091   -0.9592 H         1 CER         0.0273 
     52 H14         1.3997   -4.0600   -0.0086 H         1 CER         0.0513 
     53 H15         0.7871   -3.6336    1.6253 H         1 CER         0.0513 
     54 H16         3.2001   -1.8984    4.2937 H         1 CER         0.0552 
     55 H17         4.4737   -1.8017    6.4450 H         1 CER         0.0461 
     56 H18         5.0298   -0.1477    6.0186 H         1 CER         0.0461 
     57 H19         5.5315   -1.5506    5.0151 H         1 CER         0.0461 
     58 H20         2.0620   -1.0413    6.3502 H         1 CER         0.0461 
     59 H21         1.4442   -0.2618    4.8544 H         1 CER         0.0461 
     60 H22         2.5857    0.6229    5.9226 H         1 CER         0.0461 
     61 H24        10.3954    0.2467    2.3569 H         1 CER         0.0433 
     62 H25         9.7944   -2.9209   -1.2072 H         1 CER         0.4767 
     63 H26         7.3325   -4.2421    1.1036 H         1 CER         0.1692 
     64 H27         5.9636   -6.2220    0.5524 H         1 CER         0.1393 
     65 H28         5.9791   -7.1473   -1.7498 H         1 CER         0.1453 
     66 H29         7.3637   -6.0921   -3.5023 H         1 CER         0.1665 
     67 H30         8.1981   -1.5688   -2.9652 H         1 CER         0.1157 
     68 H31         6.3973   -1.5562   -4.4484 H         1 CER         0.0521 
     69 H32         6.3280   -3.0504   -3.4538 H         1 CER         0.0521 
     70 H33         6.8828   -3.1324   -5.1603 H         1 CER         0.0521 
     71 H34         8.6018   -0.5452   -5.0226 H         1 CER         0.0521 
     72 H35         9.1686   -2.0840   -5.7557 H         1 CER         0.0521 
     73 H36        10.1186   -1.3118   -4.4411 H         1 CER         0.0521 
     74 H74        -2.7542   -3.4258    0.4360 H         1 CER         0.0000 
@<TRIPOS>BOND
     1    1    2 1    
     2    1   39 1    
     3    1   40 1    
     4    1   41 1    
     5    2    7 ar   
     6    2    3 ar   
     7    3    4 ar   
     8    3   42 1    
     9    4    5 ar   
    10    4   18 1    
    11    5    6 ar   
    12    5   14 1    
    13    6    7 ar   
    14    6   43 1    
    15    7    8 1    
    16    8   13 1    
    17    8    9 1    
    18    8   44 1    
    19    9   10 1    
    20    9   45 1    
    21    9   46 1    
    22   10   11 1    
    23   10   47 1    
    24   10   48 1    
    25   11   12 1    
    26   11   49 1    
    27   11   74 1    
    28   12   13 1    
    29   12   50 1    
    30   12   51 1    
    31   13   52 1    
    32   13   53 1    
    33   14   15 1    
    34   15   16 1    
    35   15   17 1    
    36   15   54 1    
    37   16   55 1    
    38   16   56 1    
    39   16   57 1    
    40   17   58 1    
    41   17   59 1    
    42   17   60 1    
    43   18   19 1    
    44   19   24 ar   
    45   19   20 ar   
    46   20   21 ar   
    47   21   22 ar   
    48   21   61 1    
    49   22   23 ar   
    50   22   38 1    
    51   23   24 ar   
    52   23   25 1    
    53   25   26 1    
    54   25   62 1    
    55   26   31 ar   
    56   26   27 ar   
    57   27   28 ar   
    58   27   63 1    
    59   28   29 ar   
    60   28   64 1    
    61   29   30 ar   
    62   29   65 1    
    63   30   31 ar   
    64   30   66 1    
    65   31   32 1    
    66   32   33 2    
    67   32   34 2    
    68   32   35 1    
    69   35   36 1    
    70   35   37 1    
    71   35   67 1    
    72   36   68 1    
    73   36   69 1    
    74   36   70 1    
    75   37   71 1    
    76   37   72 1    
    77   37   73 1    
@<TRIPOS>SUBSTRUCTURE
     1 CER         1 GROUP             0       ****    0 ROOT    
@<TRIPOS>MOLECULE
5-chloro-~{N}2-[2-isopropoxy-5-methyl-4-(4-piperidyl)phenyl]-~{N}4-(2-isopropylsulfonylphenyl)pyrimidine-2,4-diamine
74   77    1
SMALL
USER_CHARGES


@<TRIPOS>ATOM
      1 C1          3.2107   -2.0875   -1.5667 C.3       1 CER        -0.0562 
      2 C2          3.3563   -1.5514   -0.1804 C.ar      1 CER        -0.0630 
      3 C3          4.6080   -1.1075    0.2462 C.ar      1 CER        -0.1307 
      4 C4          4.7664   -0.6027    1.5368 C.ar      1 CER         0.1580 
      5 C5          3.6731   -0.5417    2.4009 C.ar      1 CER         0.0623 
      6 C6          2.4214   -0.9856    1.9743 C.ar      1 CER        -0.1397 
      7 C7          2.2630   -1.4904    0.6837 C.ar      1 CER        -0.0721 
      8 C8          0.8893   -1.9681    0.2415 C.3       1 CER        -0.0178 
      9 C9         -0.2434   -1.1266    0.8508 C.3       1 CER        -0.0730 
     10 C10        -1.6120   -1.6596    0.4259 C.3       1 CER         0.1634 
     11 N1         -1.7677   -3.0729    0.7712 N.4       1 CER        -0.8232 
     12 C11        -0.7400   -3.8968    0.1340 C.3       1 CER         0.1634 
     13 C12         0.6653   -3.4577    0.5463 C.3       1 CER        -0.0730 
     14 O1          3.8072   -0.0518    3.6657 O.3       1 CER        -0.3544 
     15 C13         3.4867   -0.9342    4.7390 C.3       1 CER         0.1411 
     16 C14         4.7154   -1.1215    5.6150 C.3       1 CER        -0.1095 
     17 C15         2.3135   -0.3642    5.5206 C.3       1 CER        -0.1095 
     18 N2          6.0390   -0.1569    1.9555 N.pl3     1 CER        -0.7356 
     19 C16         7.3461   -0.5454    1.6075 C.ar      1 CER         0.9194 
     20 N3          8.3513    0.1108    2.2179 N.ar      1 CER        -0.7398 
     21 C17         9.5902   -0.2866    1.8610 C.ar      1 CER         0.4902 
     22 C18         9.8400   -1.2863    0.9431 C.ar      1 CER        -0.3353 
     23 C19         8.7246   -1.8805    0.3891 C.ar      1 CER         0.7253 
     24 N4          7.4582   -1.5337    0.6996 N.ar      1 CER        -0.7907 
     25 N5          8.9040   -2.9155   -0.5613 N.2       1 CER        -0.7551 
     26 C20         8.1313   -4.0392   -0.8960 C.ar      1 CER         0.2940 
     27 C21         7.3477   -4.6374    0.0909 C.ar      1 CER        -0.1853 
     28 C22         6.5726   -5.7555   -0.2166 C.ar      1 CER        -0.0419 
     29 C23         6.5810   -6.2755   -1.5109 C.ar      1 CER        -0.1823 
     30 C24         7.3646   -5.6773   -2.4977 C.ar      1 CER        -0.0138 
     31 C25         8.1398   -4.5592   -2.1903 C.ar      1 CER        -0.4367 
     32 S1          9.1117   -3.8390   -3.4562 S.o2      1 CER         1.3667 
     33 O2         10.4262   -3.5581   -2.9006 O.2       1 CER        -0.6585 
     34 O3          8.9890   -4.6501   -4.6578 O.2       1 CER        -0.6585 
     35 C26         8.3127   -2.2870   -3.7905 C.3       1 CER        -0.2715 
     36 C27         6.8813   -2.5228   -4.2446 C.3       1 CER        -0.0754 
     37 C28         9.1052   -1.5028   -4.8239 C.3       1 CER        -0.0754 
     38 Cl1        11.4533   -1.7221    0.5534 Cl        1 CER        -0.0471 
     39 H1          4.1834   -2.0487   -2.0788 H         1 CER         0.0465 
     40 H2          2.4803   -1.4791   -2.1203 H         1 CER         0.0465 
     41 H3          2.8611   -3.1295   -1.5220 H         1 CER         0.0465 
     42 H4          5.4596   -1.1554   -0.4290 H         1 CER         0.1475 
     43 H5          1.5710   -0.9367    2.6504 H         1 CER         0.1464 
     44 H6          0.8756   -1.8310   -0.8498 H         1 CER         0.0540 
     45 H7         -0.1766   -1.1616    1.9482 H         1 CER         0.0513 
     46 H8         -0.1498   -0.0847    0.5108 H         1 CER         0.0513 
     47 H9         -2.4022   -1.0878    0.9345 H         1 CER         0.0273 
     48 H10        -1.7252   -1.5527   -0.6630 H         1 CER         0.0273 
     49 H11        -1.6856   -3.1952    1.8613 H         1 CER         0.3638 
     50 H12        -0.8771   -4.9475    0.4294 H         1 CER         0.0273 
     51 H13        -0.8254   -3.8091   -0.9592 H         1 CER         0.0273 
     52 H14         1.3997   -4.0600   -0.0086 H         1 CER         0.0513 
     53 H15         0.7871   -3.6336    1.6253 H         1 CER         0.0513 
     54 H16         3.2001   -1.8984    4.2937 H         1 CER         0.0552 
     55 H17         4.4737   -1.8017    6.4450 H         1 CER         0.0461 
     56 H18         5.0298   -0.1477    6.0186 H         1 CER         0.0461 
     57 H19         5.5315   -1.5506    5.0151 H         1 CER         0.0461 
     58 H20         2.0620   -1.0413    6.3502 H         1 CER         0.0461 
     59 H21         1.4442   -0.2618    4.8544 H         1 CER         0.0461 
     60 H22         2.5857    0.6229    5.9226 H         1 CER         0.0461 
     61 H23         6.1221    0.6503    2.6981 H         1 CER         0.4752 
     62 H24        10.3954    0.2467    2.3569 H         1 CER         0.0433 
     63 H26         7.3325   -4.2421    1.1036 H         1 CER         0.1692 
     64 H27         5.9636   -6.2220    0.5524 H         1 CER         0.1393 
     65 H28         5.9791   -7.1473   -1.7498 H         1 CER         0.1453 
     66 H29         7.3637   -6.0921   -3.5023 H         1 CER         0.1665 
     67 H30         8.1981   -1.5688   -2.9652 H         1 CER         0.1157 
     68 H31         6.3973   -1.5562   -4.4484 H         1 CER         0.0521 
     69 H32         6.3280   -3.0504   -3.4538 H         1 CER         0.0521 
     70 H33         6.8828   -3.1324   -5.1603 H         1 CER         0.0521 
     71 H34         8.6018   -0.5452   -5.0226 H         1 CER         0.0521 
     72 H35         9.1686   -2.0840   -5.7557 H         1 CER         0.0521 
     73 H36        10.1186   -1.3118   -4.4411 H         1 CER         0.0521 
     74 H74        -2.7542   -3.4258    0.4360 H         1 CER         0.0000 
@<TRIPOS>BOND
     1    1    2 1    
     2    1   39 1    
     3    1   40 1    
     4    1   41 1    
     5    2    7 ar   
     6    2    3 ar   
     7    3    4 ar   
     8    3   42 1    
     9    4    5 ar   
    10    4   18 1    
    11    5    6 ar   
    12    5   14 1    
    13    6    7 ar   
    14    6   43 1    
    15    7    8 1    
    16    8   13 1    
    17    8    9 1    
    18    8   44 1    
    19    9   10 1    
    20    9   45 1    
    21    9   46 1    
    22   10   11 1    
    23   10   47 1    
    24   10   48 1    
    25   11   12 1    
    26   11   49 1    
    27   11   74 1    
    28   12   13 1    
    29   12   50 1    
    30   12   51 1    
    31   13   52 1    
    32   13   53 1    
    33   14   15 1    
    34   15   16 1    
    35   15   17 1    
    36   15   54 1    
    37   16   55 1    
    38   16   56 1    
    39   16   57 1    
    40   17   58 1    
    41   17   59 1    
    42   17   60 1    
    43   18   19 1    
    44   18   61 1    
    45   19   24 ar   
    46   19   20 ar   
    47   20   21 ar   
    48   21   22 ar   
    49   21   62 1    
    50   22   23 ar   
    51   22   38 1    
    52   23   24 ar   
    53   23   25 1    
    54   25   26 1    
    55   26   31 ar   
    56   26   27 ar   
    57   27   28 ar   
    58   27   63 1    
    59   28   29 ar   
    60   28   64 1    
    61   29   30 ar   
    62   29   65 1    
    63   30   31 ar   
    64   30   66 1    
    65   31   32 1    
    66   32   33 2    
    67   32   34 2    
    68   32   35 1    
    69   35   36 1    
    70   35   37 1    
    71   35   67 1    
    72   36   68 1    
    73   36   69 1    
    74   36   70 1    
    75   37   71 1    
    76   37   72 1    
    77   37   73 1    
@<TRIPOS>SUBSTRUCTURE
     1 CER         1 GROUP             0       ****    0 ROOT    
@<TRIPOS>MOLECULE
5-chloro-~{N}2-[2-isopropoxy-5-methyl-4-(4-piperidyl)phenyl]-~{N}4-(2-isopropylsulfonylphenyl)pyrimidine-2,4-diamine
75   78    1
SMALL
USER_CHARGES


@<TRIPOS>ATOM
      1 C1          3.2110   -2.0865   -1.5677 C.3       1 CER        -0.0562 
      2 C2          3.3564   -1.5505   -0.1814 C.ar      1 CER        -0.0630 
      3 C3          4.6081   -1.1067    0.2454 C.ar      1 CER        -0.1307 
      4 C4          4.7664   -0.6020    1.5361 C.ar      1 CER         0.1580 
      5 C5          3.6730   -0.5409    2.4000 C.ar      1 CER         0.0623 
      6 C6          2.4213   -0.9846    1.9732 C.ar      1 CER        -0.1397 
      7 C7          2.2630   -1.4893    0.6826 C.ar      1 CER        -0.0721 
      8 C8          0.8893   -1.9668    0.2401 C.3       1 CER        -0.0178 
      9 C9         -0.2434   -1.1252    0.8493 C.3       1 CER        -0.0730 
     10 C10        -1.6120   -1.6580    0.4242 C.3       1 CER         0.1634 
     11 N1         -1.7679   -3.0713    0.7694 N.4       1 CER        -0.8232 
     12 C11        -0.7402   -3.8953    0.1323 C.3       1 CER         0.1634 
     13 C12         0.6651   -3.4564    0.5448 C.3       1 CER        -0.0730 
     14 O1          3.8070   -0.0511    3.6648 O.3       1 CER        -0.3544 
     15 C13         3.4862   -0.9335    4.7381 C.3       1 CER         0.1411 
     16 C14         4.7147   -1.1210    5.6142 C.3       1 CER        -0.1095 
     17 C15         2.3129   -0.3633    5.5195 C.3       1 CER        -0.1095 
     18 N2          6.0390   -0.1564    1.9550 N.2       1 CER        -0.7356 
     19 C16         7.3461   -0.5451    1.6072 C.ar      1 CER         0.9194 
     20 N3          8.3513    0.1108    2.2179 N.pl3     1 CER        -0.7398 
     21 C17         9.5902   -0.2866    1.8610 C.ar      1 CER         0.4902 
     22 C18         9.8400   -1.2863    0.9431 C.ar      1 CER        -0.3353 
     23 C19         8.7246   -1.8803    0.3889 C.ar      1 CER         0.7253 
     24 N4          7.4582   -1.5334    0.6992 N.2       1 CER        -0.7907 
     25 N5          8.9040   -2.9151   -0.5617 N.pl3     1 CER        -0.7551 
     26 C20         8.1312   -4.0386   -0.8969 C.ar      1 CER         0.2940 
     27 C21         7.3472   -4.6369    0.0897 C.ar      1 CER        -0.1853 
     28 C22         6.5720   -5.7548   -0.2182 C.ar      1 CER        -0.0419 
     29 C23         6.5806   -6.2744   -1.5127 C.ar      1 CER        -0.1823 
     30 C24         7.3645   -5.6761   -2.4991 C.ar      1 CER        -0.0138 
     31 C25         8.1398   -4.5583   -2.1913 C.ar      1 CER        -0.4367 
     32 S1          9.1121   -3.8379   -3.4568 S.o2      1 CER         1.3667 
     33 O2         10.4266   -3.5574   -2.9009 O.2       1 CER        -0.6585 
     34 O3          8.9895   -4.6487   -4.6586 O.2       1 CER        -0.6585 
     35 C26         8.3135   -2.2857   -3.7909 C.3       1 CER        -0.2715 
     36 C27         6.8822   -2.5211   -4.2453 C.3       1 CER        -0.0754 
     37 C28         9.1064   -1.5014   -4.8239 C.3       1 CER        -0.0754 
     38 Cl1        11.4533   -1.7221    0.5534 Cl        1 CER        -0.0471 
     39 H1          4.1838   -2.0478   -2.0797 H         1 CER         0.0465 
     40 H2          2.4808   -1.4780   -2.1214 H         1 CER         0.0465 
     41 H3          2.8612   -3.1284   -1.5231 H         1 CER         0.0465 
     42 H4          5.4598   -1.1547   -0.4297 H         1 CER         0.1475 
     43 H5          1.5708   -0.9356    2.6492 H         1 CER         0.1464 
     44 H6          0.8758   -1.8297   -0.8512 H         1 CER         0.0540 
     45 H7         -0.1767   -1.1603    1.9467 H         1 CER         0.0513 
     46 H8         -0.1495   -0.0833    0.5094 H         1 CER         0.0513 
     47 H9         -2.4022   -1.0861    0.9327 H         1 CER         0.0273 
     48 H10        -1.7250   -1.5511   -0.6648 H         1 CER         0.0273 
     49 H11        -1.6860   -3.1936    1.8595 H         1 CER         0.3638 
     50 H12        -0.8776   -4.9460    0.4277 H         1 CER         0.0273 
     51 H13        -0.8255   -3.8076   -0.9609 H         1 CER         0.0273 
     52 H14         1.3995   -4.0588   -0.0100 H         1 CER         0.0513 
     53 H15         0.7867   -3.6323    1.6238 H         1 CER         0.0513 
     54 H16         3.1996   -1.8976    4.2927 H         1 CER         0.0552 
     55 H17         4.4728   -1.8012    6.4442 H         1 CER         0.0461 
     56 H18         5.0292   -0.1473    6.0179 H         1 CER         0.0461 
     57 H19         5.5308   -1.5501    5.0144 H         1 CER         0.0461 
     58 H20         2.0612   -1.0405    6.3490 H         1 CER         0.0461 
     59 H21         1.4438   -0.2608    4.8532 H         1 CER         0.0461 
     60 H22         2.5852    0.6237    5.9216 H         1 CER         0.0461 
     61 H23         8.1279    0.9041    2.9464 H         1 CER         0.4752 
     62 H24        10.3514    0.1880    2.3030 H         1 CER         0.0433 
     63 H25         9.7945   -2.9205   -1.2074 H         1 CER         0.4767 
     64 H26         7.3319   -4.2418    1.1025 H         1 CER         0.1692 
     65 H27         5.9627   -6.2213    0.5505 H         1 CER         0.1393 
     66 H28         5.9785   -7.1461   -1.7519 H         1 CER         0.1453 
     67 H29         7.3637   -6.0907   -3.5038 H         1 CER         0.1665 
     68 H30         8.1989   -1.5677   -2.9655 H         1 CER         0.1157 
     69 H31         6.3984   -1.5544   -4.4490 H         1 CER         0.0521 
     70 H32         6.3286   -3.0488   -3.4548 H         1 CER         0.0521 
     71 H33         6.8838   -3.1304   -5.1612 H         1 CER         0.0521 
     72 H34         8.6031   -0.5436   -5.0225 H         1 CER         0.0521 
     73 H35         9.1699   -2.0824   -5.7558 H         1 CER         0.0521 
     74 H36        10.1197   -1.3107   -4.4409 H         1 CER         0.0521 
     75 H75        -2.7544   -3.4240    0.4340 H         1 CER         0.0000 
@<TRIPOS>BOND
     1    1    2 1    
     2    1   39 1    
     3    1   40 1    
     4    1   41 1    
     5    2    7 ar   
     6    2    3 ar   
     7    3    4 ar   
     8    3   42 1    
     9    4    5 ar   
    10    4   18 1    
    11    5    6 ar   
    12    5   14 1    
    13    6    7 ar   
    14    6   43 1    
    15    7    8 1    
    16    8   13 1    
    17    8    9 1    
    18    8   44 1    
    19    9   10 1    
    20    9   45 1    
    21    9   46 1    
    22   10   11 1    
    23   10   47 1    
    24   10   48 1    
    25   11   12 1    
    26   11   49 1    
    27   11   75 1    
    28   12   13 1    
    29   12   50 1    
    30   12   51 1    
    31   13   52 1    
    32   13   53 1    
    33   14   15 1    
    34   15   16 1    
    35   15   17 1    
    36   15   54 1    
    37   16   55 1    
    38   16   56 1    
    39   16   57 1    
    40   17   58 1    
    41   17   59 1    
    42   17   60 1    
    43   18   19 2    
    44   19   24 ar   
    45   19   20 ar   
    46   20   61 1    
    47   20   21 ar   
    48   21   22 ar   
    49   21   62 1    
    50   22   38 1    
    51   22   23 ar   
    52   23   25 1    
    53   23   24 ar   
    54   25   26 1    
    55   25   63 1    
    56   26   31 ar   
    57   26   27 ar   
    58   27   28 ar   
    59   27   64 1    
    60   28   29 ar   
    61   28   65 1    
    62   29   30 ar   
    63   29   66 1    
    64   30   31 ar   
    65   30   67 1    
    66   31   32 1    
    67   32   33 2    
    68   32   34 2    
    69   32   35 1    
    70   35   36 1    
    71   35   37 1    
    72   35   68 1    
    73   36   69 1    
    74   36   70 1    
    75   36   71 1    
    76   37   72 1    
    77   37   73 1    
    78   37   74 1    
@<TRIPOS>SUBSTRUCTURE
     1 CER         1 GROUP             0       ****    0 ROOT    
@<TRIPOS>MOLECULE
5-chloro-~{N}2-[2-isopropoxy-5-methyl-4-(4-piperidyl)phenyl]-~{N}4-(2-isopropylsulfonylphenyl)pyrimidine-2,4-diamine
75   78    1
SMALL
USER_CHARGES


@<TRIPOS>ATOM
      1 C1          6.5953    2.4492    6.0822 C.3       1 CER        -0.0562 
      2 C2          5.7893    2.1095    4.8716 C.ar      1 CER        -0.0630 
      3 C3          6.2736    1.1496    3.9829 C.ar      1 CER        -0.1307 
      4 C4          5.5369    0.8169    2.8461 C.ar      1 CER         0.1580 
      5 C5          4.3159    1.4440    2.5981 C.ar      1 CER         0.0623 
      6 C6          3.8316    2.4039    3.4868 C.ar      1 CER        -0.1397 
      7 C7          4.5683    2.7366    4.6235 C.ar      1 CER        -0.0721 
      8 C8          4.0201    3.7856    5.5774 C.3       1 CER        -0.0178 
      9 C9          2.4871    3.7366    5.6775 C.3       1 CER        -0.0730 
     10 C10         1.9630    4.8322    6.6063 C.3       1 CER         0.1634 
     11 N1          2.4164    6.1570    6.1819 N.4       1 CER        -0.8232 
     12 C11         3.8770    6.2412    6.1569 C.3       1 CER         0.1634 
     13 C12         4.4817    5.2046    5.2095 C.3       1 CER        -0.0730 
     14 O1          3.5811    1.1328    1.4931 O.3       1 CER        -0.3544 
     15 C13         3.3084    2.1917    0.5778 C.3       1 CER         0.1411 
     16 C14         3.8934    1.8399   -0.7810 C.3       1 CER        -0.1095 
     17 C15         1.8062    2.4171    0.5083 C.3       1 CER        -0.1095 
     18 N2          6.0390   -0.1564    1.9550 N.2       1 CER        -0.7356 
     19 C16         7.3461   -0.5451    1.6072 C.ar      1 CER         0.9194 
     20 N3          8.3513    0.1108    2.2179 N.pl3     1 CER        -0.7398 
     21 C17         9.5902   -0.2866    1.8610 C.ar      1 CER         0.4902 
     22 C18         9.8400   -1.2863    0.9431 C.ar      1 CER        -0.3353 
     23 C19         8.7246   -1.8803    0.3889 C.ar      1 CER         0.7253 
     24 N4          7.4582   -1.5334    0.6992 N.2       1 CER        -0.7907 
     25 N5          8.9040   -2.9151   -0.5617 N.pl3     1 CER        -0.7551 
     26 C20         8.1312   -4.0386   -0.8969 C.ar      1 CER         0.2940 
     27 C21         7.3472   -4.6369    0.0897 C.ar      1 CER        -0.1853 
     28 C22         6.5720   -5.7548   -0.2182 C.ar      1 CER        -0.0419 
     29 C23         6.5806   -6.2744   -1.5127 C.ar      1 CER        -0.1823 
     30 C24         7.3645   -5.6761   -2.4991 C.ar      1 CER        -0.0138 
     31 C25         8.1398   -4.5583   -2.1913 C.ar      1 CER        -0.4367 
     32 S1          9.1121   -3.8379   -3.4568 S.o2      1 CER         1.3667 
     33 O2         10.4266   -3.5574   -2.9009 O.2       1 CER        -0.6585 
     34 O3          8.9895   -4.6487   -4.6586 O.2       1 CER        -0.6585 
     35 C26         8.3135   -2.2857   -3.7909 C.3       1 CER        -0.2715 
     36 C27         6.8822   -2.5211   -4.2453 C.3       1 CER        -0.0754 
     37 C28         9.1064   -1.5014   -4.8239 C.3       1 CER        -0.0754 
     38 Cl1        11.4533   -1.7221    0.5534 Cl        1 CER        -0.0471 
     39 H1          7.5161    1.8475    6.0903 H         1 CER         0.0465 
     40 H2          6.0077    2.2325    6.9865 H         1 CER         0.0465 
     41 H3          6.8557    3.5177    6.0614 H         1 CER         0.0465 
     42 H4          7.2259    0.6612    4.1779 H         1 CER         0.1475 
     43 H5          2.8793    2.8910    3.2906 H         1 CER         0.1464 
     44 H6          4.4409    3.5273    6.5603 H         1 CER         0.0540 
     45 H7          2.0496    3.8820    4.6788 H         1 CER         0.0513 
     46 H8          2.1767    2.7591    6.0751 H         1 CER         0.0513 
     47 H9          0.8630    4.8224    6.6008 H         1 CER         0.0273 
     48 H10         2.3261    4.6509    7.6287 H         1 CER         0.0273 
     49 H11         2.0382    6.3675    5.1707 H         1 CER         0.3638 
     50 H12         4.1808    7.2423    5.8172 H         1 CER         0.0273 
     51 H13         4.2720    6.0614    7.1676 H         1 CER         0.0273 
     52 H14         5.5781    5.2626    5.2771 H         1 CER         0.0513 
     53 H15         4.1648    5.4386    4.1825 H         1 CER         0.0513 
     54 H16         3.7996    3.0949    0.9687 H         1 CER         0.0552 
     55 H17         3.6858    2.6538   -1.4913 H         1 CER         0.0461 
     56 H18         3.4366    0.9085   -1.1468 H         1 CER         0.0461 
     57 H19         4.9808    1.7031   -0.6877 H         1 CER         0.0461 
     58 H20         1.5902    3.2333   -0.1968 H         1 CER         0.0461 
     59 H21         1.4291    2.6851    1.5063 H         1 CER         0.0461 
     60 H22         1.3127    1.4958    0.1651 H         1 CER         0.0461 
     61 H23         8.1279    0.9041    2.9464 H         1 CER         0.4752 
     62 H24        10.3514    0.1880    2.3030 H         1 CER         0.0433 
     63 H25         9.7945   -2.9205   -1.2074 H         1 CER         0.4767 
     64 H26         7.3319   -4.2418    1.1025 H         1 CER         0.1692 
     65 H27         5.9627   -6.2213    0.5505 H         1 CER         0.1393 
     66 H28         5.9785   -7.1461   -1.7519 H         1 CER         0.1453 
     67 H29         7.3637   -6.0907   -3.5038 H         1 CER         0.1665 
     68 H30         8.1989   -1.5677   -2.9655 H         1 CER         0.1157 
     69 H31         6.3984   -1.5544   -4.4490 H         1 CER         0.0521 
     70 H32         6.3286   -3.0488   -3.4548 H         1 CER         0.0521 
     71 H33         6.8838   -3.1304   -5.1612 H         1 CER         0.0521 
     72 H34         8.6031   -0.5436   -5.0225 H         1 CER         0.0521 
     73 H35         9.1699   -2.0824   -5.7558 H         1 CER         0.0521 
     74 H36        10.1197   -1.3107   -4.4409 H         1 CER         0.0521 
     75 H75         2.0359    6.9162    6.8811 H         1 CER         0.0000 
@<TRIPOS>BOND
     1    1    2 1    
     2    1   39 1    
     3    1   40 1    
     4    1   41 1    
     5    2    7 ar   
     6    2    3 ar   
     7    3    4 ar   
     8    3   42 1    
     9    4    5 ar   
    10    4   18 1    
    11    5    6 ar   
    12    5   14 1    
    13    6    7 ar   
    14    6   43 1    
    15    7    8 1    
    16    8   13 1    
    17    8    9 1    
    18    8   44 1    
    19    9   10 1    
    20    9   45 1    
    21    9   46 1    
    22   10   11 1    
    23   10   47 1    
    24   10   48 1    
    25   11   12 1    
    26   11   49 1    
    27   11   75 1    
    28   12   13 1    
    29   12   50 1    
    30   12   51 1    
    31   13   52 1    
    32   13   53 1    
    33   14   15 1    
    34   15   16 1    
    35   15   17 1    
    36   15   54 1    
    37   16   55 1    
    38   16   56 1    
    39   16   57 1    
    40   17   58 1    
    41   17   59 1    
    42   17   60 1    
    43   18   19 2    
    44   19   24 ar   
    45   19   20 ar   
    46   20   61 1    
    47   20   21 ar   
    48   21   22 ar   
    49   21   62 1    
    50   22   38 1    
    51   22   23 ar   
    52   23   25 1    
    53   23   24 ar   
    54   25   26 1    
    55   25   63 1    
    56   26   31 ar   
    57   26   27 ar   
    58   27   28 ar   
    59   27   64 1    
    60   28   29 ar   
    61   28   65 1    
    62   29   30 ar   
    63   29   66 1    
    64   30   31 ar   
    65   30   67 1    
    66   31   32 1    
    67   32   33 2    
    68   32   34 2    
    69   32   35 1    
    70   35   36 1    
    71   35   37 1    
    72   35   68 1    
    73   36   69 1    
    74   36   70 1    
    75   36   71 1    
    76   37   72 1    
    77   37   73 1    
    78   37   74 1    
@<TRIPOS>SUBSTRUCTURE
     1 CER         1 GROUP             0       ****    0 ROOT    
@<TRIPOS>MOLECULE
5-chloro-~{N}2-[2-isopropoxy-5-methyl-4-(4-piperidyl)phenyl]-~{N}4-(2-isopropylsulfonylphenyl)pyrimidine-2,4-diamine
75   78    1
SMALL
USER_CHARGES


@<TRIPOS>ATOM
      1 C1          3.2107   -2.0875   -1.5667 C.3       1 CER        -0.0562 
      2 C2          3.3563   -1.5514   -0.1804 C.ar      1 CER        -0.0630 
      3 C3          4.6080   -1.1075    0.2462 C.ar      1 CER        -0.1307 
      4 C4          4.7664   -0.6027    1.5368 C.ar      1 CER         0.1580 
      5 C5          3.6731   -0.5417    2.4009 C.ar      1 CER         0.0623 
      6 C6          2.4214   -0.9856    1.9743 C.ar      1 CER        -0.1397 
      7 C7          2.2630   -1.4904    0.6837 C.ar      1 CER        -0.0721 
      8 C8          0.8893   -1.9681    0.2415 C.3       1 CER        -0.0178 
      9 C9         -0.2434   -1.1266    0.8508 C.3       1 CER        -0.0730 
     10 C10        -1.6120   -1.6596    0.4259 C.3       1 CER         0.1634 
     11 N1         -1.7677   -3.0729    0.7712 N.3       1 CER        -0.8232 
     12 C11        -0.7400   -3.8968    0.1340 C.3       1 CER         0.1634 
     13 C12         0.6653   -3.4577    0.5463 C.3       1 CER        -0.0730 
     14 O1          3.8072   -0.0518    3.6657 O.3       1 CER        -0.3544 
     15 C13         3.4867   -0.9342    4.7390 C.3       1 CER         0.1411 
     16 C14         4.7154   -1.1215    5.6150 C.3       1 CER        -0.1095 
     17 C15         2.3135   -0.3642    5.5206 C.3       1 CER        -0.1095 
     18 N2          6.0390   -0.1569    1.9555 N.pl3     1 CER        -0.7356 
     19 C16         7.3461   -0.5454    1.6075 C.ar      1 CER         0.9194 
     20 N3          8.3513    0.1108    2.2179 N.pl3     1 CER        -0.7398 
     21 C17         9.5902   -0.2866    1.8610 C.ar      1 CER         0.4902 
     22 C18         9.8400   -1.2863    0.9431 C.ar      1 CER        -0.3353 
     23 C19         8.7246   -1.8805    0.3891 C.ar      1 CER         0.7253 
     24 N4          7.4582   -1.5337    0.6996 N.ar      1 CER        -0.7907 
     25 N5          8.9040   -2.9155   -0.5613 N.pl3     1 CER        -0.7551 
     26 C20         8.1313   -4.0392   -0.8960 C.ar      1 CER         0.2940 
     27 C21         7.3477   -4.6374    0.0909 C.ar      1 CER        -0.1853 
     28 C22         6.5726   -5.7555   -0.2166 C.ar      1 CER        -0.0419 
     29 C23         6.5810   -6.2755   -1.5109 C.ar      1 CER        -0.1823 
     30 C24         7.3646   -5.6773   -2.4977 C.ar      1 CER        -0.0138 
     31 C25         8.1398   -4.5592   -2.1903 C.ar      1 CER        -0.4367 
     32 S1          9.1117   -3.8390   -3.4562 S.o2      1 CER         1.3667 
     33 O2         10.4262   -3.5581   -2.9006 O.2       1 CER        -0.6585 
     34 O3          8.9890   -4.6501   -4.6578 O.2       1 CER        -0.6585 
     35 C26         8.3127   -2.2870   -3.7905 C.3       1 CER        -0.2715 
     36 C27         6.8813   -2.5228   -4.2446 C.3       1 CER        -0.0754 
     37 C28         9.1052   -1.5028   -4.8239 C.3       1 CER        -0.0754 
     38 Cl1        11.4533   -1.7221    0.5534 Cl        1 CER        -0.0471 
     39 H1          4.1834   -2.0487   -2.0788 H         1 CER         0.0465 
     40 H2          2.4803   -1.4791   -2.1203 H         1 CER         0.0465 
     41 H3          2.8611   -3.1295   -1.5220 H         1 CER         0.0465 
     42 H4          5.4596   -1.1554   -0.4290 H         1 CER         0.1475 
     43 H5          1.5710   -0.9367    2.6504 H         1 CER         0.1464 
     44 H6          0.8756   -1.8310   -0.8498 H         1 CER         0.0540 
     45 H7         -0.1766   -1.1616    1.9482 H         1 CER         0.0513 
     46 H8         -0.1498   -0.0847    0.5108 H         1 CER         0.0513 
     47 H9         -2.4022   -1.0878    0.9345 H         1 CER         0.0273 
     48 H10        -1.7252   -1.5527   -0.6630 H         1 CER         0.0273 
     49 H11        -1.6856   -3.1952    1.8613 H         1 CER         0.3638 
     50 H12        -0.8771   -4.9475    0.4294 H         1 CER         0.0273 
     51 H13        -0.8254   -3.8091   -0.9592 H         1 CER         0.0273 
     52 H14         1.3997   -4.0600   -0.0086 H         1 CER         0.0513 
     53 H15         0.7871   -3.6336    1.6253 H         1 CER         0.0513 
     54 H16         3.2001   -1.8984    4.2937 H         1 CER         0.0552 
     55 H17         4.4737   -1.8017    6.4450 H         1 CER         0.0461 
     56 H18         5.0298   -0.1477    6.0186 H         1 CER         0.0461 
     57 H19         5.5315   -1.5506    5.0151 H         1 CER         0.0461 
     58 H20         2.0620   -1.0413    6.3502 H         1 CER         0.0461 
     59 H21         1.4442   -0.2618    4.8544 H         1 CER         0.0461 
     60 H22         2.5857    0.6229    5.9226 H         1 CER         0.0461 
     61 H23         6.1221    0.6503    2.6981 H         1 CER         0.4752 
     62 H24        10.3954    0.2467    2.3569 H         1 CER         0.0433 
     63 H25         9.7944   -2.9209   -1.2072 H         1 CER         0.4767 
     64 H26         7.3325   -4.2421    1.1036 H         1 CER         0.1692 
     65 H27         5.9636   -6.2220    0.5524 H         1 CER         0.1393 
     66 H28         5.9791   -7.1473   -1.7498 H         1 CER         0.1453 
     67 H29         7.3637   -6.0921   -3.5023 H         1 CER         0.1665 
     68 H30         8.1981   -1.5688   -2.9652 H         1 CER         0.1157 
     69 H31         6.3973   -1.5562   -4.4484 H         1 CER         0.0521 
     70 H32         6.3280   -3.0504   -3.4538 H         1 CER         0.0521 
     71 H33         6.8828   -3.1324   -5.1603 H         1 CER         0.0521 
     72 H34         8.6018   -0.5452   -5.0226 H         1 CER         0.0521 
     73 H35         9.1686   -2.0840   -5.7557 H         1 CER         0.0521 
     74 H36        10.1186   -1.3118   -4.4411 H         1 CER         0.0521 
     75 H75         8.1279    0.9044    2.9461 H         1 CER         0.0000 
@<TRIPOS>BOND
     1    1    2 1    
     2    1   39 1    
     3    1   40 1    
     4    1   41 1    
     5    2    7 ar   
     6    2    3 ar   
     7    3    4 ar   
     8    3   42 1    
     9    4    5 ar   
    10    4   18 1    
    11    5    6 ar   
    12    5   14 1    
    13    6    7 ar   
    14    6   43 1    
    15    7    8 1    
    16    8   13 1    
    17    8    9 1    
    18    8   44 1    
    19    9   10 1    
    20    9   45 1    
    21    9   46 1    
    22   10   11 1    
    23   10   47 1    
    24   10   48 1    
    25   11   12 1    
    26   11   49 1    
    27   12   13 1    
    28   12   50 1    
    29   12   51 1    
    30   13   52 1    
    31   13   53 1    
    32   14   15 1    
    33   15   16 1    
    34   15   17 1    
    35   15   54 1    
    36   16   55 1    
    37   16   56 1    
    38   16   57 1    
    39   17   58 1    
    40   17   59 1    
    41   17   60 1    
    42   18   19 1    
    43   18   61 1    
    44   19   24 ar   
    45   19   20 ar   
    46   20   21 ar   
    47   20   75 1    
    48   21   22 ar   
    49   21   62 1    
    50   22   23 ar   
    51   22   38 1    
    52   23   24 ar   
    53   23   25 1    
    54   25   26 1    
    55   25   63 1    
    56   26   31 ar   
    57   26   27 ar   
    58   27   28 ar   
    59   27   64 1    
    60   28   29 ar   
    61   28   65 1    
    62   29   30 ar   
    63   29   66 1    
    64   30   31 ar   
    65   30   67 1    
    66   31   32 1    
    67   32   33 2    
    68   32   34 2    
    69   32   35 1    
    70   35   36 1    
    71   35   37 1    
    72   35   68 1    
    73   36   69 1    
    74   36   70 1    
    75   36   71 1    
    76   37   72 1    
    77   37   73 1    
    78   37   74 1    
@<TRIPOS>SUBSTRUCTURE
     1 CER         1 GROUP             0       ****    0 ROOT    
@<TRIPOS>MOLECULE
5-chloro-~{N}2-[2-isopropoxy-5-methyl-4-(4-piperidyl)phenyl]-~{N}4-(2-isopropylsulfonylphenyl)pyrimidine-2,4-diamine
74   77    1
SMALL
USER_CHARGES


@<TRIPOS>ATOM
      1 C1          3.2115   -2.0848   -1.5694 C.3       1 CER        -0.0562 
      2 C2          3.3567   -1.5489   -0.1830 C.ar      1 CER        -0.0630 
      3 C3          4.6084   -1.1055    0.2442 C.ar      1 CER        -0.1307 
      4 C4          4.7664   -0.6009    1.5349 C.ar      1 CER         0.1580 
      5 C5          3.6728   -0.5396    2.3985 C.ar      1 CER         0.0623 
      6 C6          2.4211   -0.9830    1.9713 C.ar      1 CER        -0.1397 
      7 C7          2.2630   -1.4876    0.6806 C.ar      1 CER        -0.0721 
      8 C8          0.8893   -1.9647    0.2378 C.3       1 CER        -0.0178 
      9 C9         -0.2433   -1.1228    0.8467 C.3       1 CER        -0.0730 
     10 C10        -1.6119   -1.6552    0.4212 C.3       1 CER         0.1634 
     11 N1         -1.7683   -3.0685    0.7663 N.4       1 CER        -0.8232 
     12 C11        -0.7407   -3.8927    0.1294 C.3       1 CER         0.1634 
     13 C12         0.6646   -3.4542    0.5423 C.3       1 CER        -0.0730 
     14 O1          3.8065   -0.0499    3.6634 O.3       1 CER        -0.3544 
     15 C13         3.4852   -0.9323    4.7365 C.3       1 CER         0.1411 
     16 C14         4.7135   -1.1201    5.6130 C.3       1 CER        -0.1095 
     17 C15         2.3119   -0.3619    5.5177 C.3       1 CER        -0.1095 
     18 N2          6.0390   -0.1557    1.9542 N.pl3     1 CER        -0.7356 
     19 C16         7.3461   -0.5446    1.6067 C.ar      1 CER         0.9194 
     20 N3          8.3513    0.1108    2.2179 N.ar      1 CER        -0.7398 
     21 C17         9.5902   -0.2868    1.8612 C.ar      1 CER         0.4902 
     22 C18         9.8400   -1.2863    0.9431 C.ar      1 CER        -0.3353 
     23 C19         8.7246   -1.8802    0.3887 C.ar      1 CER         0.7253 
     24 N4          7.4582   -1.5329    0.6987 N.2       1 CER        -0.7907 
     25 N5          8.9040   -2.9152   -0.5617 N.2       1 CER        -0.7551 
     26 C20         8.1311   -4.0386   -0.8967 C.ar      1 CER         0.2940 
     27 C21         7.3471   -4.6367    0.0900 C.ar      1 CER        -0.1853 
     28 C22         6.5718   -5.7546   -0.2178 C.ar      1 CER        -0.0419 
     29 C23         6.5804   -6.2745   -1.5122 C.ar      1 CER        -0.1823 
     30 C24         7.3644   -5.6764   -2.4987 C.ar      1 CER        -0.0138 
     31 C25         8.1398   -4.5585   -2.1910 C.ar      1 CER        -0.4367 
     32 S1          9.1123   -3.8385   -3.4566 S.o2      1 CER         1.3667 
     33 O2         10.4267   -3.5580   -2.9006 O.2       1 CER        -0.6585 
     34 O3          8.9897   -4.6495   -4.6583 O.2       1 CER        -0.6585 
     35 C26         8.3138   -2.2863   -3.7910 C.3       1 CER        -0.2715 
     36 C27         6.8824   -2.5217   -4.2455 C.3       1 CER        -0.0754 
     37 C28         9.1068   -1.5022   -4.8241 C.3       1 CER        -0.0754 
     38 Cl1        11.4533   -1.7221    0.5534 Cl        1 CER        -0.0471 
     39 H1          4.1844   -2.0464   -2.0812 H         1 CER         0.0465 
     40 H2          2.4816   -1.4761   -2.1232 H         1 CER         0.0465 
     41 H3          2.8614   -3.1267   -1.5250 H         1 CER         0.0465 
     42 H4          5.4602   -1.1537   -0.4307 H         1 CER         0.1475 
     43 H5          1.5704   -0.9338    2.6471 H         1 CER         0.1464 
     44 H6          0.8762   -1.8275   -0.8535 H         1 CER         0.0540 
     45 H7         -0.1770   -1.1580    1.9441 H         1 CER         0.0513 
     46 H8         -0.1491   -0.0809    0.5069 H         1 CER         0.0513 
     47 H9         -2.4021   -1.0832    0.9295 H         1 CER         0.0273 
     48 H10        -1.7246   -1.5482   -0.6678 H         1 CER         0.0273 
     49 H11        -1.6867   -3.1910    1.8564 H         1 CER         0.3638 
     50 H12        -0.8783   -4.9434    0.4246 H         1 CER         0.0273 
     51 H13        -0.8256   -3.8049   -0.9638 H         1 CER         0.0273 
     52 H14         1.3991   -4.0567   -0.0123 H         1 CER         0.0513 
     53 H15         0.7859   -3.6303    1.6214 H         1 CER         0.0513 
     54 H16         3.1985   -1.8963    4.2910 H         1 CER         0.0552 
     55 H17         4.4712   -1.8003    6.4428 H         1 CER         0.0461 
     56 H18         5.0281   -0.1465    6.0168 H         1 CER         0.0461 
     57 H19         5.5296   -1.5495    5.0134 H         1 CER         0.0461 
     58 H20         2.0598   -1.0390    6.3471 H         1 CER         0.0461 
     59 H21         1.4429   -0.2591    4.8511 H         1 CER         0.0461 
     60 H22         2.5843    0.6250    5.9199 H         1 CER         0.0461 
     61 H23         5.8812    0.6463    2.6903 H         1 CER         0.4752 
     62 H24        10.3514    0.1876    2.3034 H         1 CER         0.0433 
     63 H26         7.3317   -4.2415    1.1027 H         1 CER         0.1692 
     64 H27         5.9624   -6.2210    0.5510 H         1 CER         0.1393 
     65 H28         5.9783   -7.1461   -1.7513 H         1 CER         0.1453 
     66 H29         7.3637   -6.0911   -3.5033 H         1 CER         0.1665 
     67 H30         8.1992   -1.5681   -2.9657 H         1 CER         0.1157 
     68 H31         6.3988   -1.5550   -4.4493 H         1 CER         0.0521 
     69 H32         6.3287   -3.0492   -3.4549 H         1 CER         0.0521 
     70 H33         6.8841   -3.1312   -5.1612 H         1 CER         0.0521 
     71 H34         8.6036   -0.5444   -5.0229 H         1 CER         0.0521 
     72 H35         9.1703   -2.0834   -5.7559 H         1 CER         0.0521 
     73 H36        10.1201   -1.3115   -4.4411 H         1 CER         0.0521 
     74 H74        -2.7548   -3.4210    0.4305 H         1 CER         0.0000 
@<TRIPOS>BOND
     1    1    2 1    
     2    1   39 1    
     3    1   40 1    
     4    1   41 1    
     5    2    7 ar   
     6    2    3 ar   
     7    3    4 ar   
     8    3   42 1    
     9    4    5 ar   
    10    4   18 1    
    11    5    6 ar   
    12    5   14 1    
    13    6    7 ar   
    14    6   43 1    
    15    7    8 1    
    16    8   13 1    
    17    8    9 1    
    18    8   44 1    
    19    9   10 1    
    20    9   45 1    
    21    9   46 1    
    22   10   11 1    
    23   10   47 1    
    24   10   48 1    
    25   11   12 1    
    26   11   49 1    
    27   11   74 1    
    28   12   13 1    
    29   12   50 1    
    30   12   51 1    
    31   13   52 1    
    32   13   53 1    
    33   14   15 1    
    34   15   16 1    
    35   15   17 1    
    36   15   54 1    
    37   16   55 1    
    38   16   56 1    
    39   16   57 1    
    40   17   58 1    
    41   17   59 1    
    42   17   60 1    
    43   18   19 1    
    44   18   61 1    
    45   19   24 ar   
    46   19   20 ar   
    47   20   21 ar   
    48   21   22 ar   
    49   21   62 1    
    50   22   38 1    
    51   22   23 ar   
    52   23   25 2    
    53   23   24 ar   
    54   25   26 1    
    55   26   31 ar   
    56   26   27 ar   
    57   27   28 ar   
    58   27   63 1    
    59   28   29 ar   
    60   28   64 1    
    61   29   30 ar   
    62   29   65 1    
    63   30   31 ar   
    64   30   66 1    
    65   31   32 1    
    66   32   33 2    
    67   32   34 2    
    68   32   35 1    
    69   35   36 1    
    70   35   37 1    
    71   35   67 1    
    72   36   68 1    
    73   36   69 1    
    74   36   70 1    
    75   37   71 1    
    76   37   72 1    
    77   37   73 1    
@<TRIPOS>SUBSTRUCTURE
     1 CER         1 GROUP             0       ****    0 ROOT    
@<TRIPOS>MOLECULE
5-chloro-~{N}2-[2-isopropoxy-5-methyl-4-(4-piperidyl)phenyl]-~{N}4-(2-isopropylsulfonylphenyl)pyrimidine-2,4-diamine
74   77    1
SMALL
USER_CHARGES


@<TRIPOS>ATOM
      1 C1          3.2115   -2.0848   -1.5694 C.3       1 CER        -0.0562 
      2 C2          3.3567   -1.5489   -0.1830 C.ar      1 CER        -0.0630 
      3 C3          4.6084   -1.1055    0.2442 C.ar      1 CER        -0.1307 
      4 C4          4.7664   -0.6009    1.5349 C.ar      1 CER         0.1580 
      5 C5          3.6728   -0.5396    2.3985 C.ar      1 CER         0.0623 
      6 C6          2.4211   -0.9830    1.9713 C.ar      1 CER        -0.1397 
      7 C7          2.2630   -1.4876    0.6806 C.ar      1 CER        -0.0721 
      8 C8          0.8893   -1.9647    0.2378 C.3       1 CER        -0.0178 
      9 C9         -0.2433   -1.1228    0.8467 C.3       1 CER        -0.0730 
     10 C10        -1.6119   -1.6552    0.4212 C.3       1 CER         0.1634 
     11 N1         -1.7683   -3.0685    0.7663 N.4       1 CER        -0.8232 
     12 C11        -0.7407   -3.8927    0.1294 C.3       1 CER         0.1634 
     13 C12         0.6646   -3.4542    0.5423 C.3       1 CER        -0.0730 
     14 O1          3.8065   -0.0499    3.6634 O.3       1 CER        -0.3544 
     15 C13         3.4852   -0.9323    4.7365 C.3       1 CER         0.1411 
     16 C14         4.7135   -1.1201    5.6130 C.3       1 CER        -0.1095 
     17 C15         2.3119   -0.3619    5.5177 C.3       1 CER        -0.1095 
     18 N2          6.0390   -0.1557    1.9542 N.pl3     1 CER        -0.7356 
     19 C16         7.3461   -0.5446    1.6067 C.ar      1 CER         0.9194 
     20 N3          8.3513    0.1108    2.2179 N.ar      1 CER        -0.7398 
     21 C17         9.5902   -0.2868    1.8612 C.ar      1 CER         0.4902 
     22 C18         9.8400   -1.2863    0.9431 C.ar      1 CER        -0.3353 
     23 C19         8.7246   -1.8802    0.3887 C.ar      1 CER         0.7253 
     24 N4          7.4582   -1.5329    0.6987 N.2       1 CER        -0.7907 
     25 N5          8.9040   -2.9152   -0.5617 N.2       1 CER        -0.7551 
     26 C20         9.9169   -3.1765   -1.4984 C.ar      1 CER         0.2940 
     27 C21        10.6188   -2.1046   -2.0499 C.ar      1 CER        -0.1853 
     28 C22        11.6284   -2.3385   -2.9834 C.ar      1 CER        -0.0419 
     29 C23        11.9363   -3.6442   -3.3655 C.ar      1 CER        -0.1823 
     30 C24        11.2344   -4.7160   -2.8141 C.ar      1 CER        -0.0138 
     31 C25        10.2247   -4.4823   -1.8805 C.ar      1 CER        -0.4367 
     32 S1          9.3652   -5.8543   -1.2137 S.o2      1 CER         1.3667 
     33 O2          7.9466   -5.5335   -1.2175 O.2       1 CER        -0.6585 
     34 O3          9.8382   -7.0646   -1.8681 O.2       1 CER        -0.6585 
     35 C26         9.9077   -5.9294    0.4771 C.3       1 CER        -0.2715 
     36 C27        11.4139   -6.1261    0.5349 C.3       1 CER        -0.0754 
     37 C28         9.1706   -7.0360    1.2141 C.3       1 CER        -0.0754 
     38 Cl1        11.4533   -1.7221    0.5534 Cl        1 CER        -0.0471 
     39 H1          4.1844   -2.0464   -2.0812 H         1 CER         0.0465 
     40 H2          2.4816   -1.4761   -2.1232 H         1 CER         0.0465 
     41 H3          2.8614   -3.1267   -1.5250 H         1 CER         0.0465 
     42 H4          5.4602   -1.1537   -0.4307 H         1 CER         0.1475 
     43 H5          1.5704   -0.9338    2.6471 H         1 CER         0.1464 
     44 H6          0.8762   -1.8275   -0.8535 H         1 CER         0.0540 
     45 H7         -0.1770   -1.1580    1.9441 H         1 CER         0.0513 
     46 H8         -0.1491   -0.0809    0.5069 H         1 CER         0.0513 
     47 H9         -2.4021   -1.0832    0.9295 H         1 CER         0.0273 
     48 H10        -1.7246   -1.5482   -0.6678 H         1 CER         0.0273 
     49 H11        -1.6867   -3.1910    1.8564 H         1 CER         0.3638 
     50 H12        -0.8783   -4.9434    0.4246 H         1 CER         0.0273 
     51 H13        -0.8256   -3.8049   -0.9638 H         1 CER         0.0273 
     52 H14         1.3991   -4.0567   -0.0123 H         1 CER         0.0513 
     53 H15         0.7859   -3.6303    1.6214 H         1 CER         0.0513 
     54 H16         3.1985   -1.8963    4.2910 H         1 CER         0.0552 
     55 H17         4.4712   -1.8003    6.4428 H         1 CER         0.0461 
     56 H18         5.0281   -0.1465    6.0168 H         1 CER         0.0461 
     57 H19         5.5296   -1.5495    5.0134 H         1 CER         0.0461 
     58 H20         2.0598   -1.0390    6.3471 H         1 CER         0.0461 
     59 H21         1.4429   -0.2591    4.8511 H         1 CER         0.0461 
     60 H22         2.5843    0.6250    5.9199 H         1 CER         0.0461 
     61 H23         5.8812    0.6463    2.6903 H         1 CER         0.4752 
     62 H24        10.3514    0.1876    2.3034 H         1 CER         0.0433 
     63 H26        10.3885   -1.0821   -1.7607 H         1 CER         0.1692 
     64 H27        12.1739   -1.5035   -3.4137 H         1 CER         0.1393 
     65 H28        12.7209   -3.8261   -4.0939 H         1 CER         0.1453 
     66 H29        11.4825   -5.7289   -3.1204 H         1 CER         0.1665 
     67 H30         9.7455   -5.0505    1.1184 H         1 CER         0.1157 
     68 H31        11.7378   -6.1710    1.5852 H         1 CER         0.0521 
     69 H32        11.9131   -5.2841    0.0330 H         1 CER         0.0521 
     70 H33        11.6808   -7.0653    0.0284 H         1 CER         0.0521 
     71 H34         9.5142   -7.0731    2.2584 H         1 CER         0.0521 
     72 H35         9.3750   -8.0006    0.7264 H         1 CER         0.0521 
     73 H36         8.0894   -6.8351    1.1907 H         1 CER         0.0521 
     74 H74        -2.7548   -3.4210    0.4305 H         1 CER         0.0000 
@<TRIPOS>BOND
     1    1    2 1    
     2    1   39 1    
     3    1   40 1    
     4    1   41 1    
     5    2    7 ar   
     6    2    3 ar   
     7    3    4 ar   
     8    3   42 1    
     9    4    5 ar   
    10    4   18 1    
    11    5    6 ar   
    12    5   14 1    
    13    6    7 ar   
    14    6   43 1    
    15    7    8 1    
    16    8   13 1    
    17    8    9 1    
    18    8   44 1    
    19    9   10 1    
    20    9   45 1    
    21    9   46 1    
    22   10   11 1    
    23   10   47 1    
    24   10   48 1    
    25   11   12 1    
    26   11   49 1    
    27   11   74 1    
    28   12   13 1    
    29   12   50 1    
    30   12   51 1    
    31   13   52 1    
    32   13   53 1    
    33   14   15 1    
    34   15   16 1    
    35   15   17 1    
    36   15   54 1    
    37   16   55 1    
    38   16   56 1    
    39   16   57 1    
    40   17   58 1    
    41   17   59 1    
    42   17   60 1    
    43   18   19 1    
    44   18   61 1    
    45   19   24 ar   
    46   19   20 ar   
    47   20   21 ar   
    48   21   22 ar   
    49   21   62 1    
    50   22   38 1    
    51   22   23 ar   
    52   23   25 2    
    53   23   24 ar   
    54   25   26 1    
    55   26   31 ar   
    56   26   27 ar   
    57   27   28 ar   
    58   27   63 1    
    59   28   29 ar   
    60   28   64 1    
    61   29   30 ar   
    62   29   65 1    
    63   30   31 ar   
    64   30   66 1    
    65   31   32 1    
    66   32   33 2    
    67   32   34 2    
    68   32   35 1    
    69   35   36 1    
    70   35   37 1    
    71   35   67 1    
    72   36   68 1    
    73   36   69 1    
    74   36   70 1    
    75   37   71 1    
    76   37   72 1    
    77   37   73 1    
@<TRIPOS>SUBSTRUCTURE
     1 CER         1 GROUP             0       ****    0 ROOT    
@<TRIPOS>MOLECULE
5-chloro-~{N}2-[2-isopropoxy-5-methyl-4-(4-piperidyl)phenyl]-~{N}4-(2-isopropylsulfonylphenyl)pyrimidine-2,4-diamine
75   78    1
SMALL
USER_CHARGES


@<TRIPOS>ATOM
      1 C1          3.2115   -2.0848   -1.5694 C.3       1 CER        -0.0562 
      2 C2          3.3567   -1.5489   -0.1830 C.ar      1 CER        -0.0630 
      3 C3          4.6084   -1.1055    0.2442 C.ar      1 CER        -0.1307 
      4 C4          4.7664   -0.6009    1.5349 C.ar      1 CER         0.1580 
      5 C5          3.6728   -0.5396    2.3985 C.ar      1 CER         0.0623 
      6 C6          2.4211   -0.9830    1.9713 C.ar      1 CER        -0.1397 
      7 C7          2.2630   -1.4876    0.6806 C.ar      1 CER        -0.0721 
      8 C8          0.8893   -1.9647    0.2378 C.3       1 CER        -0.0178 
      9 C9         -0.2433   -1.1228    0.8467 C.3       1 CER        -0.0730 
     10 C10        -1.6119   -1.6552    0.4212 C.3       1 CER         0.1634 
     11 N1         -1.7683   -3.0685    0.7663 N.4       1 CER        -0.8232 
     12 C11        -0.7407   -3.8927    0.1294 C.3       1 CER         0.1634 
     13 C12         0.6646   -3.4542    0.5423 C.3       1 CER        -0.0730 
     14 O1          3.8065   -0.0499    3.6634 O.3       1 CER        -0.3544 
     15 C13         3.4852   -0.9323    4.7365 C.3       1 CER         0.1411 
     16 C14         4.7135   -1.1201    5.6130 C.3       1 CER        -0.1095 
     17 C15         2.3119   -0.3619    5.5177 C.3       1 CER        -0.1095 
     18 N2          6.0390   -0.1557    1.9542 N.pl3     1 CER        -0.7356 
     19 C16         7.3461   -0.5446    1.6067 C.ar      1 CER         0.9194 
     20 N3          8.3513    0.1108    2.2179 N.2       1 CER        -0.7398 
     21 C17         9.5902   -0.2868    1.8612 C.ar      1 CER         0.4902 
     22 C18         9.8400   -1.2863    0.9431 C.ar      1 CER        -0.3353 
     23 C19         8.7246   -1.8802    0.3887 C.ar      1 CER         0.7253 
     24 N4          7.4582   -1.5329    0.6987 N.pl3     1 CER        -0.7907 
     25 N5          8.9040   -2.9152   -0.5617 N.2       1 CER        -0.7551 
     26 C20         8.1311   -4.0386   -0.8967 C.ar      1 CER         0.2940 
     27 C21         7.3471   -4.6367    0.0900 C.ar      1 CER        -0.1853 
     28 C22         6.5718   -5.7546   -0.2178 C.ar      1 CER        -0.0419 
     29 C23         6.5804   -6.2745   -1.5122 C.ar      1 CER        -0.1823 
     30 C24         7.3644   -5.6764   -2.4987 C.ar      1 CER        -0.0138 
     31 C25         8.1398   -4.5585   -2.1910 C.ar      1 CER        -0.4367 
     32 S1          9.1123   -3.8385   -3.4566 S.o2      1 CER         1.3667 
     33 O2         10.4267   -3.5580   -2.9006 O.2       1 CER        -0.6585 
     34 O3          8.9897   -4.6495   -4.6583 O.2       1 CER        -0.6585 
     35 C26         8.3138   -2.2863   -3.7910 C.3       1 CER        -0.2715 
     36 C27         6.8824   -2.5217   -4.2455 C.3       1 CER        -0.0754 
     37 C28         9.1068   -1.5022   -4.8241 C.3       1 CER        -0.0754 
     38 Cl1        11.4533   -1.7221    0.5534 Cl        1 CER        -0.0471 
     39 H1          4.1844   -2.0464   -2.0812 H         1 CER         0.0465 
     40 H2          2.4816   -1.4761   -2.1232 H         1 CER         0.0465 
     41 H3          2.8614   -3.1267   -1.5250 H         1 CER         0.0465 
     42 H4          5.4602   -1.1537   -0.4307 H         1 CER         0.1475 
     43 H5          1.5704   -0.9338    2.6471 H         1 CER         0.1464 
     44 H6          0.8762   -1.8275   -0.8535 H         1 CER         0.0540 
     45 H7         -0.1770   -1.1580    1.9441 H         1 CER         0.0513 
     46 H8         -0.1491   -0.0809    0.5069 H         1 CER         0.0513 
     47 H9         -2.4021   -1.0832    0.9295 H         1 CER         0.0273 
     48 H10        -1.7246   -1.5482   -0.6678 H         1 CER         0.0273 
     49 H11        -1.6867   -3.1910    1.8564 H         1 CER         0.3638 
     50 H12        -0.8783   -4.9434    0.4246 H         1 CER         0.0273 
     51 H13        -0.8256   -3.8049   -0.9638 H         1 CER         0.0273 
     52 H14         1.3991   -4.0567   -0.0123 H         1 CER         0.0513 
     53 H15         0.7859   -3.6303    1.6214 H         1 CER         0.0513 
     54 H16         3.1985   -1.8963    4.2910 H         1 CER         0.0552 
     55 H17         4.4712   -1.8003    6.4428 H         1 CER         0.0461 
     56 H18         5.0281   -0.1465    6.0168 H         1 CER         0.0461 
     57 H19         5.5296   -1.5495    5.0134 H         1 CER         0.0461 
     58 H20         2.0598   -1.0390    6.3471 H         1 CER         0.0461 
     59 H21         1.4429   -0.2591    4.8511 H         1 CER         0.0461 
     60 H22         2.5843    0.6250    5.9199 H         1 CER         0.0461 
     61 H23         5.8812    0.6463    2.6903 H         1 CER         0.4752 
     62 H24        10.3514    0.1876    2.3034 H         1 CER         0.0433 
     63 H26         7.3317   -4.2415    1.1027 H         1 CER         0.1692 
     64 H27         5.9624   -6.2210    0.5510 H         1 CER         0.1393 
     65 H28         5.9783   -7.1461   -1.7513 H         1 CER         0.1453 
     66 H29         7.3637   -6.0911   -3.5033 H         1 CER         0.1665 
     67 H30         8.1992   -1.5681   -2.9657 H         1 CER         0.1157 
     68 H31         6.3988   -1.5550   -4.4493 H         1 CER         0.0521 
     69 H32         6.3287   -3.0492   -3.4549 H         1 CER         0.0521 
     70 H33         6.8841   -3.1312   -5.1612 H         1 CER         0.0521 
     71 H34         8.6036   -0.5444   -5.0229 H         1 CER         0.0521 
     72 H35         9.1703   -2.0834   -5.7559 H         1 CER         0.0521 
     73 H36        10.1201   -1.3115   -4.4411 H         1 CER         0.0521 
     74 H74        -2.7548   -3.4210    0.4305 H         1 CER         0.0000 
     75 H75         6.6134   -2.0483    0.2185 H         1 CER         0.0000 
@<TRIPOS>BOND
     1    1    2 1    
     2    1   39 1    
     3    1   40 1    
     4    1   41 1    
     5    2    7 ar   
     6    2    3 ar   
     7    3    4 ar   
     8    3   42 1    
     9    4    5 ar   
    10    4   18 1    
    11    5    6 ar   
    12    5   14 1    
    13    6    7 ar   
    14    6   43 1    
    15    7    8 1    
    16    8   13 1    
    17    8    9 1    
    18    8   44 1    
    19    9   10 1    
    20    9   45 1    
    21    9   46 1    
    22   10   11 1    
    23   10   47 1    
    24   10   48 1    
    25   11   12 1    
    26   11   49 1    
    27   11   74 1    
    28   12   13 1    
    29   12   50 1    
    30   12   51 1    
    31   13   52 1    
    32   13   53 1    
    33   14   15 1    
    34   15   16 1    
    35   15   17 1    
    36   15   54 1    
    37   16   55 1    
    38   16   56 1    
    39   16   57 1    
    40   17   58 1    
    41   17   59 1    
    42   17   60 1    
    43   18   19 1    
    44   18   61 1    
    45   19   24 ar   
    46   19   20 ar   
    47   20   21 ar   
    48   21   22 ar   
    49   21   62 1    
    50   22   38 1    
    51   22   23 ar   
    52   23   25 2    
    53   23   24 ar   
    54   24   75 1    
    55   25   26 1    
    56   26   31 ar   
    57   26   27 ar   
    58   27   28 ar   
    59   27   63 1    
    60   28   29 ar   
    61   28   64 1    
    62   29   30 ar   
    63   29   65 1    
    64   30   31 ar   
    65   30   66 1    
    66   31   32 1    
    67   32   33 2    
    68   32   34 2    
    69   32   35 1    
    70   35   36 1    
    71   35   37 1    
    72   35   67 1    
    73   36   68 1    
    74   36   69 1    
    75   36   70 1    
    76   37   71 1    
    77   37   72 1    
    78   37   73 1    
@<TRIPOS>SUBSTRUCTURE
     1 CER         1 GROUP             0       ****    0 ROOT    
@<TRIPOS>MOLECULE
5-chloro-~{N}2-[2-isopropoxy-5-methyl-4-(4-piperidyl)phenyl]-~{N}4-(2-isopropylsulfonylphenyl)pyrimidine-2,4-diamine
75   78    1
SMALL
USER_CHARGES


@<TRIPOS>ATOM
      1 C1          3.2115   -2.0848   -1.5694 C.3       1 CER        -0.0562 
      2 C2          3.3567   -1.5489   -0.1830 C.ar      1 CER        -0.0630 
      3 C3          4.6084   -1.1055    0.2442 C.ar      1 CER        -0.1307 
      4 C4          4.7664   -0.6009    1.5349 C.ar      1 CER         0.1580 
      5 C5          3.6728   -0.5396    2.3985 C.ar      1 CER         0.0623 
      6 C6          2.4211   -0.9830    1.9713 C.ar      1 CER        -0.1397 
      7 C7          2.2630   -1.4876    0.6806 C.ar      1 CER        -0.0721 
      8 C8          0.8893   -1.9647    0.2378 C.3       1 CER        -0.0178 
      9 C9         -0.2433   -1.1228    0.8467 C.3       1 CER        -0.0730 
     10 C10        -1.6119   -1.6552    0.4212 C.3       1 CER         0.1634 
     11 N1         -1.7683   -3.0685    0.7663 N.4       1 CER        -0.8232 
     12 C11        -0.7407   -3.8927    0.1294 C.3       1 CER         0.1634 
     13 C12         0.6646   -3.4542    0.5423 C.3       1 CER        -0.0730 
     14 O1          3.8065   -0.0499    3.6634 O.3       1 CER        -0.3544 
     15 C13         3.4852   -0.9323    4.7365 C.3       1 CER         0.1411 
     16 C14         4.7135   -1.1201    5.6130 C.3       1 CER        -0.1095 
     17 C15         2.3119   -0.3619    5.5177 C.3       1 CER        -0.1095 
     18 N2          6.0390   -0.1557    1.9542 N.pl3     1 CER        -0.7356 
     19 C16         7.3461   -0.5446    1.6067 C.ar      1 CER         0.9194 
     20 N3          8.3513    0.1108    2.2179 N.2       1 CER        -0.7398 
     21 C17         9.5902   -0.2868    1.8612 C.ar      1 CER         0.4902 
     22 C18         9.8400   -1.2863    0.9431 C.ar      1 CER        -0.3353 
     23 C19         8.7246   -1.8802    0.3887 C.ar      1 CER         0.7253 
     24 N4          7.4582   -1.5329    0.6987 N.pl3     1 CER        -0.7907 
     25 N5          8.9040   -2.9152   -0.5617 N.2       1 CER        -0.7551 
     26 C20         9.9169   -3.1765   -1.4984 C.ar      1 CER         0.2940 
     27 C21        10.6188   -2.1046   -2.0499 C.ar      1 CER        -0.1853 
     28 C22        11.6284   -2.3385   -2.9834 C.ar      1 CER        -0.0419 
     29 C23        11.9363   -3.6442   -3.3655 C.ar      1 CER        -0.1823 
     30 C24        11.2344   -4.7160   -2.8141 C.ar      1 CER        -0.0138 
     31 C25        10.2247   -4.4823   -1.8805 C.ar      1 CER        -0.4367 
     32 S1          9.3652   -5.8543   -1.2137 S.o2      1 CER         1.3667 
     33 O2          7.9466   -5.5335   -1.2175 O.2       1 CER        -0.6585 
     34 O3          9.8382   -7.0646   -1.8681 O.2       1 CER        -0.6585 
     35 C26         9.9077   -5.9294    0.4771 C.3       1 CER        -0.2715 
     36 C27        11.4139   -6.1261    0.5349 C.3       1 CER        -0.0754 
     37 C28         9.1706   -7.0360    1.2141 C.3       1 CER        -0.0754 
     38 Cl1        11.4533   -1.7221    0.5534 Cl        1 CER        -0.0471 
     39 H1          4.1844   -2.0464   -2.0812 H         1 CER         0.0465 
     40 H2          2.4816   -1.4761   -2.1232 H         1 CER         0.0465 
     41 H3          2.8614   -3.1267   -1.5250 H         1 CER         0.0465 
     42 H4          5.4602   -1.1537   -0.4307 H         1 CER         0.1475 
     43 H5          1.5704   -0.9338    2.6471 H         1 CER         0.1464 
     44 H6          0.8762   -1.8275   -0.8535 H         1 CER         0.0540 
     45 H7         -0.1770   -1.1580    1.9441 H         1 CER         0.0513 
     46 H8         -0.1491   -0.0809    0.5069 H         1 CER         0.0513 
     47 H9         -2.4021   -1.0832    0.9295 H         1 CER         0.0273 
     48 H10        -1.7246   -1.5482   -0.6678 H         1 CER         0.0273 
     49 H11        -1.6867   -3.1910    1.8564 H         1 CER         0.3638 
     50 H12        -0.8783   -4.9434    0.4246 H         1 CER         0.0273 
     51 H13        -0.8256   -3.8049   -0.9638 H         1 CER         0.0273 
     52 H14         1.3991   -4.0567   -0.0123 H         1 CER         0.0513 
     53 H15         0.7859   -3.6303    1.6214 H         1 CER         0.0513 
     54 H16         3.1985   -1.8963    4.2910 H         1 CER         0.0552 
     55 H17         4.4712   -1.8003    6.4428 H         1 CER         0.0461 
     56 H18         5.0281   -0.1465    6.0168 H         1 CER         0.0461 
     57 H19         5.5296   -1.5495    5.0134 H         1 CER         0.0461 
     58 H20         2.0598   -1.0390    6.3471 H         1 CER         0.0461 
     59 H21         1.4429   -0.2591    4.8511 H         1 CER         0.0461 
     60 H22         2.5843    0.6250    5.9199 H         1 CER         0.0461 
     61 H23         5.8812    0.6463    2.6903 H         1 CER         0.4752 
     62 H24        10.3514    0.1876    2.3034 H         1 CER         0.0433 
     63 H26        10.3885   -1.0821   -1.7607 H         1 CER         0.1692 
     64 H27        12.1739   -1.5035   -3.4137 H         1 CER         0.1393 
     65 H28        12.7209   -3.8261   -4.0939 H         1 CER         0.1453 
     66 H29        11.4825   -5.7289   -3.1204 H         1 CER         0.1665 
     67 H30         9.7455   -5.0505    1.1184 H         1 CER         0.1157 
     68 H31        11.7378   -6.1710    1.5852 H         1 CER         0.0521 
     69 H32        11.9131   -5.2841    0.0330 H         1 CER         0.0521 
     70 H33        11.6808   -7.0653    0.0284 H         1 CER         0.0521 
     71 H34         9.5142   -7.0731    2.2584 H         1 CER         0.0521 
     72 H35         9.3750   -8.0006    0.7264 H         1 CER         0.0521 
     73 H36         8.0894   -6.8351    1.1907 H         1 CER         0.0521 
     74 H74        -2.7548   -3.4210    0.4305 H         1 CER         0.0000 
     75 H75         6.6134   -2.0483    0.2185 H         1 CER         0.0000 
@<TRIPOS>BOND
     1    1    2 1    
     2    1   39 1    
     3    1   40 1    
     4    1   41 1    
     5    2    7 ar   
     6    2    3 ar   
     7    3    4 ar   
     8    3   42 1    
     9    4    5 ar   
    10    4   18 1    
    11    5    6 ar   
    12    5   14 1    
    13    6    7 ar   
    14    6   43 1    
    15    7    8 1    
    16    8   13 1    
    17    8    9 1    
    18    8   44 1    
    19    9   10 1    
    20    9   45 1    
    21    9   46 1    
    22   10   11 1    
    23   10   47 1    
    24   10   48 1    
    25   11   12 1    
    26   11   49 1    
    27   11   74 1    
    28   12   13 1    
    29   12   50 1    
    30   12   51 1    
    31   13   52 1    
    32   13   53 1    
    33   14   15 1    
    34   15   16 1    
    35   15   17 1    
    36   15   54 1    
    37   16   55 1    
    38   16   56 1    
    39   16   57 1    
    40   17   58 1    
    41   17   59 1    
    42   17   60 1    
    43   18   19 1    
    44   18   61 1    
    45   19   24 ar   
    46   19   20 ar   
    47   20   21 ar   
    48   21   22 ar   
    49   21   62 1    
    50   22   38 1    
    51   22   23 ar   
    52   23   25 2    
    53   23   24 ar   
    54   24   75 1    
    55   25   26 1    
    56   26   31 ar   
    57   26   27 ar   
    58   27   28 ar   
    59   27   63 1    
    60   28   29 ar   
    61   28   64 1    
    62   29   30 ar   
    63   29   65 1    
    64   30   31 ar   
    65   30   66 1    
    66   31   32 1    
    67   32   33 2    
    68   32   34 2    
    69   32   35 1    
    70   35   36 1    
    71   35   37 1    
    72   35   67 1    
    73   36   68 1    
    74   36   69 1    
    75   36   70 1    
    76   37   71 1    
    77   37   72 1    
    78   37   73 1    
@<TRIPOS>SUBSTRUCTURE
     1 CER         1 GROUP             0       ****    0 ROOT    
@<TRIPOS>MOLECULE
5-chloro-~{N}2-[2-isopropoxy-5-methyl-4-(4-piperidyl)phenyl]-~{N}4-(2-isopropylsulfonylphenyl)pyrimidine-2,4-diamine
75   78    1
SMALL
USER_CHARGES


@<TRIPOS>ATOM
      1 C1          3.2115   -2.0848   -1.5694 C.3       1 CER        -0.0562 
      2 C2          3.3567   -1.5489   -0.1830 C.ar      1 CER        -0.0630 
      3 C3          4.6084   -1.1055    0.2442 C.ar      1 CER        -0.1307 
      4 C4          4.7664   -0.6009    1.5349 C.ar      1 CER         0.1580 
      5 C5          3.6728   -0.5396    2.3985 C.ar      1 CER         0.0623 
      6 C6          2.4211   -0.9830    1.9713 C.ar      1 CER        -0.1397 
      7 C7          2.2630   -1.4876    0.6806 C.ar      1 CER        -0.0721 
      8 C8          0.8893   -1.9647    0.2378 C.3       1 CER        -0.0178 
      9 C9         -0.2433   -1.1228    0.8467 C.3       1 CER        -0.0730 
     10 C10        -1.6119   -1.6552    0.4212 C.3       1 CER         0.1634 
     11 N1         -1.7683   -3.0685    0.7663 N.4       1 CER        -0.8232 
     12 C11        -0.7407   -3.8927    0.1294 C.3       1 CER         0.1634 
     13 C12         0.6646   -3.4542    0.5423 C.3       1 CER        -0.0730 
     14 O1          3.8065   -0.0499    3.6634 O.3       1 CER        -0.3544 
     15 C13         3.4852   -0.9323    4.7365 C.3       1 CER         0.1411 
     16 C14         4.7135   -1.1201    5.6130 C.3       1 CER        -0.1095 
     17 C15         2.3119   -0.3619    5.5177 C.3       1 CER        -0.1095 
     18 N2          6.0390   -0.1557    1.9542 N.pl3     1 CER        -0.7356 
     19 C16         7.3461   -0.5446    1.6067 C.ar      1 CER         0.9194 
     20 N3          8.3513    0.1108    2.2179 N.pl3     1 CER        -0.7398 
     21 C17         9.5902   -0.2868    1.8612 C.ar      1 CER         0.4902 
     22 C18         9.8400   -1.2863    0.9431 C.ar      1 CER        -0.3353 
     23 C19         8.7246   -1.8802    0.3887 C.ar      1 CER         0.7253 
     24 N4          7.4582   -1.5329    0.6987 N.2       1 CER        -0.7907 
     25 N5          8.9040   -2.9152   -0.5617 N.2       1 CER        -0.7551 
     26 C20         9.9169   -3.1765   -1.4984 C.ar      1 CER         0.2940 
     27 C21        10.6188   -2.1046   -2.0499 C.ar      1 CER        -0.1853 
     28 C22        11.6284   -2.3385   -2.9834 C.ar      1 CER        -0.0419 
     29 C23        11.9363   -3.6442   -3.3655 C.ar      1 CER        -0.1823 
     30 C24        11.2344   -4.7160   -2.8141 C.ar      1 CER        -0.0138 
     31 C25        10.2247   -4.4823   -1.8805 C.ar      1 CER        -0.4367 
     32 S1          9.3652   -5.8543   -1.2137 S.o2      1 CER         1.3667 
     33 O2          7.9466   -5.5335   -1.2175 O.2       1 CER        -0.6585 
     34 O3          9.8382   -7.0646   -1.8681 O.2       1 CER        -0.6585 
     35 C26         9.9077   -5.9294    0.4771 C.3       1 CER        -0.2715 
     36 C27        11.4139   -6.1261    0.5349 C.3       1 CER        -0.0754 
     37 C28         9.1706   -7.0360    1.2141 C.3       1 CER        -0.0754 
     38 Cl1        11.4533   -1.7221    0.5534 Cl        1 CER        -0.0471 
     39 H1          4.1844   -2.0464   -2.0812 H         1 CER         0.0465 
     40 H2          2.4816   -1.4761   -2.1232 H         1 CER         0.0465 
     41 H3          2.8614   -3.1267   -1.5250 H         1 CER         0.0465 
     42 H4          5.4602   -1.1537   -0.4307 H         1 CER         0.1475 
     43 H5          1.5704   -0.9338    2.6471 H         1 CER         0.1464 
     44 H6          0.8762   -1.8275   -0.8535 H         1 CER         0.0540 
     45 H7         -0.1770   -1.1580    1.9441 H         1 CER         0.0513 
     46 H8         -0.1491   -0.0809    0.5069 H         1 CER         0.0513 
     47 H9         -2.4021   -1.0832    0.9295 H         1 CER         0.0273 
     48 H10        -1.7246   -1.5482   -0.6678 H         1 CER         0.0273 
     49 H11        -1.6867   -3.1910    1.8564 H         1 CER         0.3638 
     50 H12        -0.8783   -4.9434    0.4246 H         1 CER         0.0273 
     51 H13        -0.8256   -3.8049   -0.9638 H         1 CER         0.0273 
     52 H14         1.3991   -4.0567   -0.0123 H         1 CER         0.0513 
     53 H15         0.7859   -3.6303    1.6214 H         1 CER         0.0513 
     54 H16         3.1985   -1.8963    4.2910 H         1 CER         0.0552 
     55 H17         4.4712   -1.8003    6.4428 H         1 CER         0.0461 
     56 H18         5.0281   -0.1465    6.0168 H         1 CER         0.0461 
     57 H19         5.5296   -1.5495    5.0134 H         1 CER         0.0461 
     58 H20         2.0598   -1.0390    6.3471 H         1 CER         0.0461 
     59 H21         1.4429   -0.2591    4.8511 H         1 CER         0.0461 
     60 H22         2.5843    0.6250    5.9199 H         1 CER         0.0461 
     61 H23         5.8812    0.6463    2.6903 H         1 CER         0.4752 
     62 H24        10.3514    0.1876    2.3034 H         1 CER         0.0433 
     63 H26        10.3885   -1.0821   -1.7607 H         1 CER         0.1692 
     64 H27        12.1739   -1.5035   -3.4137 H         1 CER         0.1393 
     65 H28        12.7209   -3.8261   -4.0939 H         1 CER         0.1453 
     66 H29        11.4825   -5.7289   -3.1204 H         1 CER         0.1665 
     67 H30         9.7455   -5.0505    1.1184 H         1 CER         0.1157 
     68 H31        11.7378   -6.1710    1.5852 H         1 CER         0.0521 
     69 H32        11.9131   -5.2841    0.0330 H         1 CER         0.0521 
     70 H33        11.6808   -7.0653    0.0284 H         1 CER         0.0521 
     71 H34         9.5142   -7.0731    2.2584 H         1 CER         0.0521 
     72 H35         9.3750   -8.0006    0.7264 H         1 CER         0.0521 
     73 H36         8.0894   -6.8351    1.1907 H         1 CER         0.0521 
     74 H74        -2.7548   -3.4210    0.4305 H         1 CER         0.0000 
     75 H75         8.1279    0.9039    2.9466 H         1 CER         0.0000 
@<TRIPOS>BOND
     1    1    2 1    
     2    1   39 1    
     3    1   40 1    
     4    1   41 1    
     5    2    7 ar   
     6    2    3 ar   
     7    3    4 ar   
     8    3   42 1    
     9    4    5 ar   
    10    4   18 1    
    11    5    6 ar   
    12    5   14 1    
    13    6    7 ar   
    14    6   43 1    
    15    7    8 1    
    16    8   13 1    
    17    8    9 1    
    18    8   44 1    
    19    9   10 1    
    20    9   45 1    
    21    9   46 1    
    22   10   11 1    
    23   10   47 1    
    24   10   48 1    
    25   11   12 1    
    26   11   49 1    
    27   11   74 1    
    28   12   13 1    
    29   12   50 1    
    30   12   51 1    
    31   13   52 1    
    32   13   53 1    
    33   14   15 1    
    34   15   16 1    
    35   15   17 1    
    36   15   54 1    
    37   16   55 1    
    38   16   56 1    
    39   16   57 1    
    40   17   58 1    
    41   17   59 1    
    42   17   60 1    
    43   18   19 1    
    44   18   61 1    
    45   19   24 ar   
    46   19   20 ar   
    47   20   21 ar   
    48   20   75 1    
    49   21   22 ar   
    50   21   62 1    
    51   22   38 1    
    52   22   23 ar   
    53   23   25 2    
    54   23   24 ar   
    55   25   26 1    
    56   26   31 ar   
    57   26   27 ar   
    58   27   28 ar   
    59   27   63 1    
    60   28   29 ar   
    61   28   64 1    
    62   29   30 ar   
    63   29   65 1    
    64   30   31 ar   
    65   30   66 1    
    66   31   32 1    
    67   32   33 2    
    68   32   34 2    
    69   32   35 1    
    70   35   36 1    
    71   35   37 1    
    72   35   67 1    
    73   36   68 1    
    74   36   69 1    
    75   36   70 1    
    76   37   71 1    
    77   37   72 1    
    78   37   73 1    
@<TRIPOS>SUBSTRUCTURE
     1 CER         1 GROUP             0       ****    0 ROOT    
@<TRIPOS>MOLECULE
5-chloro-~{N}2-[2-isopropoxy-5-methyl-4-(4-piperidyl)phenyl]-~{N}4-(2-isopropylsulfonylphenyl)pyrimidine-2,4-diamine
75   78    1
SMALL
USER_CHARGES


@<TRIPOS>ATOM
      1 C1          3.2107   -2.0875   -1.5667 C.3       1 CER        -0.0562 
      2 C2          3.3563   -1.5514   -0.1804 C.ar      1 CER        -0.0630 
      3 C3          4.6080   -1.1075    0.2462 C.ar      1 CER        -0.1307 
      4 C4          4.7664   -0.6027    1.5368 C.ar      1 CER         0.1580 
      5 C5          3.6731   -0.5417    2.4009 C.ar      1 CER         0.0623 
      6 C6          2.4214   -0.9856    1.9743 C.ar      1 CER        -0.1397 
      7 C7          2.2630   -1.4904    0.6837 C.ar      1 CER        -0.0721 
      8 C8          0.8893   -1.9681    0.2415 C.3       1 CER        -0.0178 
      9 C9         -0.2434   -1.1266    0.8508 C.3       1 CER        -0.0730 
     10 C10        -1.6120   -1.6596    0.4259 C.3       1 CER         0.1634 
     11 N1         -1.7677   -3.0729    0.7712 N.4       1 CER        -0.8232 
     12 C11        -0.7400   -3.8968    0.1340 C.3       1 CER         0.1634 
     13 C12         0.6653   -3.4577    0.5463 C.3       1 CER        -0.0730 
     14 O1          3.8072   -0.0518    3.6657 O.3       1 CER        -0.3544 
     15 C13         3.4867   -0.9342    4.7390 C.3       1 CER         0.1411 
     16 C14         4.7154   -1.1215    5.6150 C.3       1 CER        -0.1095 
     17 C15         2.3135   -0.3642    5.5206 C.3       1 CER        -0.1095 
     18 N2          6.0390   -0.1569    1.9555 N.pl3     1 CER        -0.7356 
     19 C16         7.3461   -0.5454    1.6075 C.ar      1 CER         0.9194 
     20 N3          8.3513    0.1108    2.2179 N.pl3     1 CER        -0.7398 
     21 C17         9.5902   -0.2866    1.8610 C.ar      1 CER         0.4902 
     22 C18         9.8400   -1.2863    0.9431 C.ar      1 CER        -0.3353 
     23 C19         8.7246   -1.8805    0.3891 C.ar      1 CER         0.7253 
     24 N4          7.4582   -1.5337    0.6996 N.2       1 CER        -0.7907 
     25 N5          8.9040   -2.9155   -0.5613 N.2       1 CER        -0.7551 
     26 C20         8.1313   -4.0392   -0.8960 C.ar      1 CER         0.2940 
     27 C21         7.3477   -4.6374    0.0909 C.ar      1 CER        -0.1853 
     28 C22         6.5726   -5.7555   -0.2166 C.ar      1 CER        -0.0419 
     29 C23         6.5810   -6.2755   -1.5109 C.ar      1 CER        -0.1823 
     30 C24         7.3646   -5.6773   -2.4977 C.ar      1 CER        -0.0138 
     31 C25         8.1398   -4.5592   -2.1903 C.ar      1 CER        -0.4367 
     32 S1          9.1117   -3.8390   -3.4562 S.o2      1 CER         1.3667 
     33 O2         10.4262   -3.5581   -2.9006 O.2       1 CER        -0.6585 
     34 O3          8.9890   -4.6501   -4.6578 O.2       1 CER        -0.6585 
     35 C26         8.3127   -2.2870   -3.7905 C.3       1 CER        -0.2715 
     36 C27         6.8813   -2.5228   -4.2446 C.3       1 CER        -0.0754 
     37 C28         9.1052   -1.5028   -4.8239 C.3       1 CER        -0.0754 
     38 Cl1        11.4533   -1.7221    0.5534 Cl        1 CER        -0.0471 
     39 H1          4.1834   -2.0487   -2.0788 H         1 CER         0.0465 
     40 H2          2.4803   -1.4791   -2.1203 H         1 CER         0.0465 
     41 H3          2.8611   -3.1295   -1.5220 H         1 CER         0.0465 
     42 H4          5.4596   -1.1554   -0.4290 H         1 CER         0.1475 
     43 H5          1.5710   -0.9367    2.6504 H         1 CER         0.1464 
     44 H6          0.8756   -1.8310   -0.8498 H         1 CER         0.0540 
     45 H7         -0.1766   -1.1616    1.9482 H         1 CER         0.0513 
     46 H8         -0.1498   -0.0847    0.5108 H         1 CER         0.0513 
     47 H9         -2.4022   -1.0878    0.9345 H         1 CER         0.0273 
     48 H10        -1.7252   -1.5527   -0.6630 H         1 CER         0.0273 
     49 H11        -1.6856   -3.1952    1.8613 H         1 CER         0.3638 
     50 H12        -0.8771   -4.9475    0.4294 H         1 CER         0.0273 
     51 H13        -0.8254   -3.8091   -0.9592 H         1 CER         0.0273 
     52 H14         1.3997   -4.0600   -0.0086 H         1 CER         0.0513 
     53 H15         0.7871   -3.6336    1.6253 H         1 CER         0.0513 
     54 H16         3.2001   -1.8984    4.2937 H         1 CER         0.0552 
     55 H17         4.4737   -1.8017    6.4450 H         1 CER         0.0461 
     56 H18         5.0298   -0.1477    6.0186 H         1 CER         0.0461 
     57 H19         5.5315   -1.5506    5.0151 H         1 CER         0.0461 
     58 H20         2.0620   -1.0413    6.3502 H         1 CER         0.0461 
     59 H21         1.4442   -0.2618    4.8544 H         1 CER         0.0461 
     60 H22         2.5857    0.6229    5.9226 H         1 CER         0.0461 
     61 H23         6.1221    0.6503    2.6981 H         1 CER         0.4752 
     62 H24        10.3954    0.2467    2.3569 H         1 CER         0.0433 
     63 H26         7.3325   -4.2421    1.1036 H         1 CER         0.1692 
     64 H27         5.9636   -6.2220    0.5524 H         1 CER         0.1393 
     65 H28         5.9791   -7.1473   -1.7498 H         1 CER         0.1453 
     66 H29         7.3637   -6.0921   -3.5023 H         1 CER         0.1665 
     67 H30         8.1981   -1.5688   -2.9652 H         1 CER         0.1157 
     68 H31         6.3973   -1.5562   -4.4484 H         1 CER         0.0521 
     69 H32         6.3280   -3.0504   -3.4538 H         1 CER         0.0521 
     70 H33         6.8828   -3.1324   -5.1603 H         1 CER         0.0521 
     71 H34         8.6018   -0.5452   -5.0226 H         1 CER         0.0521 
     72 H35         9.1686   -2.0840   -5.7557 H         1 CER         0.0521 
     73 H36        10.1186   -1.3118   -4.4411 H         1 CER         0.0521 
     74 H74        -2.7542   -3.4258    0.4360 H         1 CER         0.0000 
     75 H75         8.1279    0.9044    2.9461 H         1 CER         0.0000 
@<TRIPOS>BOND
     1    1    2 1    
     2    1   39 1    
     3    1   40 1    
     4    1   41 1    
     5    2    7 ar   
     6    2    3 ar   
     7    3    4 ar   
     8    3   42 1    
     9    4    5 ar   
    10    4   18 1    
    11    5    6 ar   
    12    5   14 1    
    13    6    7 ar   
    14    6   43 1    
    15    7    8 1    
    16    8   13 1    
    17    8    9 1    
    18    8   44 1    
    19    9   10 1    
    20    9   45 1    
    21    9   46 1    
    22   10   11 1    
    23   10   47 1    
    24   10   48 1    
    25   11   12 1    
    26   11   49 1    
    27   11   74 1    
    28   12   13 1    
    29   12   50 1    
    30   12   51 1    
    31   13   52 1    
    32   13   53 1    
    33   14   15 1    
    34   15   16 1    
    35   15   17 1    
    36   15   54 1    
    37   16   55 1    
    38   16   56 1    
    39   16   57 1    
    40   17   58 1    
    41   17   59 1    
    42   17   60 1    
    43   18   19 1    
    44   18   61 1    
    45   19   24 ar   
    46   19   20 ar   
    47   20   21 ar   
    48   20   75 1    
    49   21   22 ar   
    50   21   62 1    
    51   22   23 ar   
    52   22   38 1    
    53   23   24 ar   
    54   23   25 2    
    55   25   26 1    
    56   26   31 ar   
    57   26   27 ar   
    58   27   28 ar   
    59   27   63 1    
    60   28   29 ar   
    61   28   64 1    
    62   29   30 ar   
    63   29   65 1    
    64   30   31 ar   
    65   30   66 1    
    66   31   32 1    
    67   32   33 2    
    68   32   34 2    
    69   32   35 1    
    70   35   36 1    
    71   35   37 1    
    72   35   67 1    
    73   36   68 1    
    74   36   69 1    
    75   36   70 1    
    76   37   71 1    
    77   37   72 1    
    78   37   73 1    
@<TRIPOS>SUBSTRUCTURE
     1 CER         1 GROUP             0       ****    0 ROOT    
@<TRIPOS>MOLECULE
5-chloro-~{N}2-[2-isopropoxy-5-methyl-4-(4-piperidyl)phenyl]-~{N}4-(2-isopropylsulfonylphenyl)pyrimidine-2,4-diamine
75   78    1
SMALL
USER_CHARGES


@<TRIPOS>ATOM
      1 C1          6.5953    2.4492    6.0822 C.3       1 CER        -0.0562 
      2 C2          5.7893    2.1095    4.8716 C.ar      1 CER        -0.0630 
      3 C3          6.2736    1.1496    3.9829 C.ar      1 CER        -0.1307 
      4 C4          5.5369    0.8169    2.8461 C.ar      1 CER         0.1580 
      5 C5          4.3159    1.4440    2.5981 C.ar      1 CER         0.0623 
      6 C6          3.8316    2.4039    3.4868 C.ar      1 CER        -0.1397 
      7 C7          4.5683    2.7366    4.6235 C.ar      1 CER        -0.0721 
      8 C8          4.0201    3.7856    5.5774 C.3       1 CER        -0.0178 
      9 C9          2.4871    3.7366    5.6775 C.3       1 CER        -0.0730 
     10 C10         1.9630    4.8322    6.6063 C.3       1 CER         0.1634 
     11 N1          2.4164    6.1570    6.1819 N.4       1 CER        -0.8232 
     12 C11         3.8770    6.2412    6.1569 C.3       1 CER         0.1634 
     13 C12         4.4817    5.2046    5.2095 C.3       1 CER        -0.0730 
     14 O1          3.5811    1.1328    1.4931 O.3       1 CER        -0.3544 
     15 C13         3.3084    2.1917    0.5778 C.3       1 CER         0.1411 
     16 C14         3.8934    1.8399   -0.7810 C.3       1 CER        -0.1095 
     17 C15         1.8062    2.4171    0.5083 C.3       1 CER        -0.1095 
     18 N2          6.0390   -0.1564    1.9550 N.2       1 CER        -0.7356 
     19 C16         7.3461   -0.5451    1.6072 C.ar      1 CER         0.9194 
     20 N3          8.3513    0.1108    2.2179 N.2       1 CER        -0.7398 
     21 C17         9.5902   -0.2866    1.8610 C.ar      1 CER         0.4902 
     22 C18         9.8400   -1.2863    0.9431 C.ar      1 CER        -0.3353 
     23 C19         8.7246   -1.8803    0.3889 C.ar      1 CER         0.7253 
     24 N4          7.4582   -1.5334    0.6992 N.pl3     1 CER        -0.7907 
     25 N5          8.9040   -2.9151   -0.5617 N.pl3     1 CER        -0.7551 
     26 C20         8.1312   -4.0386   -0.8969 C.ar      1 CER         0.2940 
     27 C21         7.3472   -4.6369    0.0897 C.ar      1 CER        -0.1853 
     28 C22         6.5720   -5.7548   -0.2182 C.ar      1 CER        -0.0419 
     29 C23         6.5806   -6.2744   -1.5127 C.ar      1 CER        -0.1823 
     30 C24         7.3645   -5.6761   -2.4991 C.ar      1 CER        -0.0138 
     31 C25         8.1398   -4.5583   -2.1913 C.ar      1 CER        -0.4367 
     32 S1          9.1121   -3.8379   -3.4568 S.o2      1 CER         1.3667 
     33 O2         10.4266   -3.5574   -2.9009 O.2       1 CER        -0.6585 
     34 O3          8.9895   -4.6487   -4.6586 O.2       1 CER        -0.6585 
     35 C26         8.3135   -2.2857   -3.7909 C.3       1 CER        -0.2715 
     36 C27         6.8822   -2.5211   -4.2453 C.3       1 CER        -0.0754 
     37 C28         9.1064   -1.5014   -4.8239 C.3       1 CER        -0.0754 
     38 Cl1        11.4533   -1.7221    0.5534 Cl        1 CER        -0.0471 
     39 H1          7.5161    1.8475    6.0903 H         1 CER         0.0465 
     40 H2          6.0077    2.2325    6.9865 H         1 CER         0.0465 
     41 H3          6.8557    3.5177    6.0614 H         1 CER         0.0465 
     42 H4          7.2259    0.6612    4.1779 H         1 CER         0.1475 
     43 H5          2.8793    2.8910    3.2906 H         1 CER         0.1464 
     44 H6          4.4409    3.5273    6.5603 H         1 CER         0.0540 
     45 H7          2.0496    3.8820    4.6788 H         1 CER         0.0513 
     46 H8          2.1767    2.7591    6.0751 H         1 CER         0.0513 
     47 H9          0.8630    4.8224    6.6008 H         1 CER         0.0273 
     48 H10         2.3261    4.6509    7.6287 H         1 CER         0.0273 
     49 H11         2.0382    6.3675    5.1707 H         1 CER         0.3638 
     50 H12         4.1808    7.2423    5.8172 H         1 CER         0.0273 
     51 H13         4.2720    6.0614    7.1676 H         1 CER         0.0273 
     52 H14         5.5781    5.2626    5.2771 H         1 CER         0.0513 
     53 H15         4.1648    5.4386    4.1825 H         1 CER         0.0513 
     54 H16         3.7996    3.0949    0.9687 H         1 CER         0.0552 
     55 H17         3.6858    2.6538   -1.4913 H         1 CER         0.0461 
     56 H18         3.4366    0.9085   -1.1468 H         1 CER         0.0461 
     57 H19         4.9808    1.7031   -0.6877 H         1 CER         0.0461 
     58 H20         1.5902    3.2333   -0.1968 H         1 CER         0.0461 
     59 H21         1.4291    2.6851    1.5063 H         1 CER         0.0461 
     60 H22         1.3127    1.4958    0.1651 H         1 CER         0.0461 
     61 H24        10.3514    0.1880    2.3030 H         1 CER         0.0433 
     62 H25         9.7945   -2.9205   -1.2074 H         1 CER         0.4767 
     63 H26         7.3319   -4.2418    1.1025 H         1 CER         0.1692 
     64 H27         5.9627   -6.2213    0.5505 H         1 CER         0.1393 
     65 H28         5.9785   -7.1461   -1.7519 H         1 CER         0.1453 
     66 H29         7.3637   -6.0907   -3.5038 H         1 CER         0.1665 
     67 H30         8.1989   -1.5677   -2.9655 H         1 CER         0.1157 
     68 H31         6.3984   -1.5544   -4.4490 H         1 CER         0.0521 
     69 H32         6.3286   -3.0488   -3.4548 H         1 CER         0.0521 
     70 H33         6.8838   -3.1304   -5.1612 H         1 CER         0.0521 
     71 H34         8.6031   -0.5436   -5.0225 H         1 CER         0.0521 
     72 H35         9.1699   -2.0824   -5.7558 H         1 CER         0.0521 
     73 H36        10.1197   -1.3107   -4.4409 H         1 CER         0.0521 
     74 H74         2.0359    6.9162    6.8811 H         1 CER         0.0000 
     75 H75         6.6133   -2.0490    0.2193 H         1 CER         0.0000 
@<TRIPOS>BOND
     1    1    2 1    
     2    1   39 1    
     3    1   40 1    
     4    1   41 1    
     5    2    7 ar   
     6    2    3 ar   
     7    3    4 ar   
     8    3   42 1    
     9    4    5 ar   
    10    4   18 1    
    11    5    6 ar   
    12    5   14 1    
    13    6    7 ar   
    14    6   43 1    
    15    7    8 1    
    16    8   13 1    
    17    8    9 1    
    18    8   44 1    
    19    9   10 1    
    20    9   45 1    
    21    9   46 1    
    22   10   11 1    
    23   10   47 1    
    24   10   48 1    
    25   11   12 1    
    26   11   49 1    
    27   11   74 1    
    28   12   13 1    
    29   12   50 1    
    30   12   51 1    
    31   13   52 1    
    32   13   53 1    
    33   14   15 1    
    34   15   16 1    
    35   15   17 1    
    36   15   54 1    
    37   16   55 1    
    38   16   56 1    
    39   16   57 1    
    40   17   58 1    
    41   17   59 1    
    42   17   60 1    
    43   18   19 2    
    44   19   24 ar   
    45   19   20 ar   
    46   20   21 ar   
    47   21   22 ar   
    48   21   61 1    
    49   22   38 1    
    50   22   23 ar   
    51   23   25 1    
    52   23   24 ar   
    53   24   75 1    
    54   25   26 1    
    55   25   62 1    
    56   26   31 ar   
    57   26   27 ar   
    58   27   28 ar   
    59   27   63 1    
    60   28   29 ar   
    61   28   64 1    
    62   29   30 ar   
    63   29   65 1    
    64   30   31 ar   
    65   30   66 1    
    66   31   32 1    
    67   32   33 2    
    68   32   34 2    
    69   32   35 1    
    70   35   36 1    
    71   35   37 1    
    72   35   67 1    
    73   36   68 1    
    74   36   69 1    
    75   36   70 1    
    76   37   71 1    
    77   37   72 1    
    78   37   73 1    
@<TRIPOS>SUBSTRUCTURE
     1 CER         1 GROUP             0       ****    0 ROOT    
@<TRIPOS>MOLECULE
5-chloro-~{N}2-[2-isopropoxy-5-methyl-4-(4-piperidyl)phenyl]-~{N}4-(2-isopropylsulfonylphenyl)pyrimidine-2,4-diamine
74   77    1
SMALL
USER_CHARGES


@<TRIPOS>ATOM
      1 C1          6.5953    2.4492    6.0822 C.3       1 CER        -0.0562 
      2 C2          5.7893    2.1095    4.8716 C.ar      1 CER        -0.0630 
      3 C3          6.2736    1.1496    3.9829 C.ar      1 CER        -0.1307 
      4 C4          5.5369    0.8169    2.8461 C.ar      1 CER         0.1580 
      5 C5          4.3159    1.4440    2.5981 C.ar      1 CER         0.0623 
      6 C6          3.8316    2.4039    3.4868 C.ar      1 CER        -0.1397 
      7 C7          4.5683    2.7366    4.6235 C.ar      1 CER        -0.0721 
      8 C8          4.0201    3.7856    5.5774 C.3       1 CER        -0.0178 
      9 C9          2.4871    3.7366    5.6775 C.3       1 CER        -0.0730 
     10 C10         1.9630    4.8322    6.6063 C.3       1 CER         0.1634 
     11 N1          2.4164    6.1570    6.1819 N.3       1 CER        -0.8232 
     12 C11         3.8770    6.2412    6.1569 C.3       1 CER         0.1634 
     13 C12         4.4817    5.2046    5.2095 C.3       1 CER        -0.0730 
     14 O1          3.5811    1.1328    1.4931 O.3       1 CER        -0.3544 
     15 C13         3.3084    2.1917    0.5778 C.3       1 CER         0.1411 
     16 C14         3.8934    1.8399   -0.7810 C.3       1 CER        -0.1095 
     17 C15         1.8062    2.4171    0.5083 C.3       1 CER        -0.1095 
     18 N2          6.0390   -0.1564    1.9550 N.2       1 CER        -0.7356 
     19 C16         7.3461   -0.5451    1.6072 C.ar      1 CER         0.9194 
     20 N3          8.3513    0.1108    2.2179 N.pl3     1 CER        -0.7398 
     21 C17         9.5902   -0.2866    1.8610 C.ar      1 CER         0.4902 
     22 C18         9.8400   -1.2863    0.9431 C.ar      1 CER        -0.3353 
     23 C19         8.7246   -1.8803    0.3889 C.ar      1 CER         0.7253 
     24 N4          7.4582   -1.5334    0.6992 N.2       1 CER        -0.7907 
     25 N5          8.9040   -2.9151   -0.5617 N.pl3     1 CER        -0.7551 
     26 C20         8.1312   -4.0386   -0.8969 C.ar      1 CER         0.2940 
     27 C21         7.3472   -4.6369    0.0897 C.ar      1 CER        -0.1853 
     28 C22         6.5720   -5.7548   -0.2182 C.ar      1 CER        -0.0419 
     29 C23         6.5806   -6.2744   -1.5127 C.ar      1 CER        -0.1823 
     30 C24         7.3645   -5.6761   -2.4991 C.ar      1 CER        -0.0138 
     31 C25         8.1398   -4.5583   -2.1913 C.ar      1 CER        -0.4367 
     32 S1          9.1121   -3.8379   -3.4568 S.o2      1 CER         1.3667 
     33 O2         10.4266   -3.5574   -2.9009 O.2       1 CER        -0.6585 
     34 O3          8.9895   -4.6487   -4.6586 O.2       1 CER        -0.6585 
     35 C26         8.3135   -2.2857   -3.7909 C.3       1 CER        -0.2715 
     36 C27         6.8822   -2.5211   -4.2453 C.3       1 CER        -0.0754 
     37 C28         9.1064   -1.5014   -4.8239 C.3       1 CER        -0.0754 
     38 Cl1        11.4533   -1.7221    0.5534 Cl        1 CER        -0.0471 
     39 H1          7.5161    1.8475    6.0903 H         1 CER         0.0465 
     40 H2          6.0077    2.2325    6.9865 H         1 CER         0.0465 
     41 H3          6.8557    3.5177    6.0614 H         1 CER         0.0465 
     42 H4          7.2259    0.6612    4.1779 H         1 CER         0.1475 
     43 H5          2.8793    2.8910    3.2906 H         1 CER         0.1464 
     44 H6          4.4409    3.5273    6.5603 H         1 CER         0.0540 
     45 H7          2.0496    3.8820    4.6788 H         1 CER         0.0513 
     46 H8          2.1767    2.7591    6.0751 H         1 CER         0.0513 
     47 H9          0.8630    4.8224    6.6008 H         1 CER         0.0273 
     48 H10         2.3261    4.6509    7.6287 H         1 CER         0.0273 
     49 H11         2.0382    6.3675    5.1707 H         1 CER         0.3638 
     50 H12         4.1808    7.2423    5.8172 H         1 CER         0.0273 
     51 H13         4.2720    6.0614    7.1676 H         1 CER         0.0273 
     52 H14         5.5781    5.2626    5.2771 H         1 CER         0.0513 
     53 H15         4.1648    5.4386    4.1825 H         1 CER         0.0513 
     54 H16         3.7996    3.0949    0.9687 H         1 CER         0.0552 
     55 H17         3.6858    2.6538   -1.4913 H         1 CER         0.0461 
     56 H18         3.4366    0.9085   -1.1468 H         1 CER         0.0461 
     57 H19         4.9808    1.7031   -0.6877 H         1 CER         0.0461 
     58 H20         1.5902    3.2333   -0.1968 H         1 CER         0.0461 
     59 H21         1.4291    2.6851    1.5063 H         1 CER         0.0461 
     60 H22         1.3127    1.4958    0.1651 H         1 CER         0.0461 
     61 H24        10.3514    0.1880    2.3030 H         1 CER         0.0433 
     62 H25         9.7945   -2.9205   -1.2074 H         1 CER         0.4767 
     63 H26         7.3319   -4.2418    1.1025 H         1 CER         0.1692 
     64 H27         5.9627   -6.2213    0.5505 H         1 CER         0.1393 
     65 H28         5.9785   -7.1461   -1.7519 H         1 CER         0.1453 
     66 H29         7.3637   -6.0907   -3.5038 H         1 CER         0.1665 
     67 H30         8.1989   -1.5677   -2.9655 H         1 CER         0.1157 
     68 H31         6.3984   -1.5544   -4.4490 H         1 CER         0.0521 
     69 H32         6.3286   -3.0488   -3.4548 H         1 CER         0.0521 
     70 H33         6.8838   -3.1304   -5.1612 H         1 CER         0.0521 
     71 H34         8.6031   -0.5436   -5.0225 H         1 CER         0.0521 
     72 H35         9.1699   -2.0824   -5.7558 H         1 CER         0.0521 
     73 H36        10.1197   -1.3107   -4.4409 H         1 CER         0.0521 
     74 H74         8.1279    0.9041    2.9464 H         1 CER         0.0000 
@<TRIPOS>BOND
     1    1    2 1    
     2    1   39 1    
     3    1   40 1    
     4    1   41 1    
     5    2    7 ar   
     6    2    3 ar   
     7    3    4 ar   
     8    3   42 1    
     9    4    5 ar   
    10    4   18 1    
    11    5    6 ar   
    12    5   14 1    
    13    6    7 ar   
    14    6   43 1    
    15    7    8 1    
    16    8   13 1    
    17    8    9 1    
    18    8   44 1    
    19    9   10 1    
    20    9   45 1    
    21    9   46 1    
    22   10   11 1    
    23   10   47 1    
    24   10   48 1    
    25   11   12 1    
    26   11   49 1    
    27   12   13 1    
    28   12   50 1    
    29   12   51 1    
    30   13   52 1    
    31   13   53 1    
    32   14   15 1    
    33   15   16 1    
    34   15   17 1    
    35   15   54 1    
    36   16   55 1    
    37   16   56 1    
    38   16   57 1    
    39   17   58 1    
    40   17   59 1    
    41   17   60 1    
    42   18   19 2    
    43   19   24 ar   
    44   19   20 ar   
    45   20   21 ar   
    46   20   74 1    
    47   21   22 ar   
    48   21   61 1    
    49   22   38 1    
    50   22   23 ar   
    51   23   25 1    
    52   23   24 ar   
    53   25   26 1    
    54   25   62 1    
    55   26   31 ar   
    56   26   27 ar   
    57   27   28 ar   
    58   27   63 1    
    59   28   29 ar   
    60   28   64 1    
    61   29   30 ar   
    62   29   65 1    
    63   30   31 ar   
    64   30   66 1    
    65   31   32 1    
    66   32   33 2    
    67   32   34 2    
    68   32   35 1    
    69   35   36 1    
    70   35   37 1    
    71   35   67 1    
    72   36   68 1    
    73   36   69 1    
    74   36   70 1    
    75   37   71 1    
    76   37   72 1    
    77   37   73 1    
@<TRIPOS>SUBSTRUCTURE
     1 CER         1 GROUP             0       ****    0 ROOT    
@<TRIPOS>MOLECULE
5-chloro-~{N}2-[2-isopropoxy-5-methyl-4-(4-piperidyl)phenyl]-~{N}4-(2-isopropylsulfonylphenyl)pyrimidine-2,4-diamine
74   77    1
SMALL
USER_CHARGES


@<TRIPOS>ATOM
      1 C1          3.2110   -2.0865   -1.5677 C.3       1 CER        -0.0562 
      2 C2          3.3564   -1.5505   -0.1814 C.ar      1 CER        -0.0630 
      3 C3          4.6081   -1.1067    0.2454 C.ar      1 CER        -0.1307 
      4 C4          4.7664   -0.6020    1.5361 C.ar      1 CER         0.1580 
      5 C5          3.6730   -0.5409    2.4000 C.ar      1 CER         0.0623 
      6 C6          2.4213   -0.9846    1.9732 C.ar      1 CER        -0.1397 
      7 C7          2.2630   -1.4893    0.6826 C.ar      1 CER        -0.0721 
      8 C8          0.8893   -1.9668    0.2401 C.3       1 CER        -0.0178 
      9 C9         -0.2434   -1.1252    0.8493 C.3       1 CER        -0.0730 
     10 C10        -1.6120   -1.6580    0.4242 C.3       1 CER         0.1634 
     11 N1         -1.7679   -3.0713    0.7694 N.3       1 CER        -0.8232 
     12 C11        -0.7402   -3.8953    0.1323 C.3       1 CER         0.1634 
     13 C12         0.6651   -3.4564    0.5448 C.3       1 CER        -0.0730 
     14 O1          3.8070   -0.0511    3.6648 O.3       1 CER        -0.3544 
     15 C13         3.4862   -0.9335    4.7381 C.3       1 CER         0.1411 
     16 C14         4.7147   -1.1210    5.6142 C.3       1 CER        -0.1095 
     17 C15         2.3129   -0.3633    5.5195 C.3       1 CER        -0.1095 
     18 N2          6.0390   -0.1564    1.9550 N.2       1 CER        -0.7356 
     19 C16         7.3461   -0.5451    1.6072 C.ar      1 CER         0.9194 
     20 N3          8.3513    0.1108    2.2179 N.pl3     1 CER        -0.7398 
     21 C17         9.5902   -0.2866    1.8610 C.ar      1 CER         0.4902 
     22 C18         9.8400   -1.2863    0.9431 C.ar      1 CER        -0.3353 
     23 C19         8.7246   -1.8803    0.3889 C.ar      1 CER         0.7253 
     24 N4          7.4582   -1.5334    0.6992 N.2       1 CER        -0.7907 
     25 N5          8.9040   -2.9151   -0.5617 N.pl3     1 CER        -0.7551 
     26 C20         8.1312   -4.0386   -0.8969 C.ar      1 CER         0.2940 
     27 C21         7.3472   -4.6369    0.0897 C.ar      1 CER        -0.1853 
     28 C22         6.5720   -5.7548   -0.2182 C.ar      1 CER        -0.0419 
     29 C23         6.5806   -6.2744   -1.5127 C.ar      1 CER        -0.1823 
     30 C24         7.3645   -5.6761   -2.4991 C.ar      1 CER        -0.0138 
     31 C25         8.1398   -4.5583   -2.1913 C.ar      1 CER        -0.4367 
     32 S1          9.1121   -3.8379   -3.4568 S.o2      1 CER         1.3667 
     33 O2         10.4266   -3.5574   -2.9009 O.2       1 CER        -0.6585 
     34 O3          8.9895   -4.6487   -4.6586 O.2       1 CER        -0.6585 
     35 C26         8.3135   -2.2857   -3.7909 C.3       1 CER        -0.2715 
     36 C27         6.8822   -2.5211   -4.2453 C.3       1 CER        -0.0754 
     37 C28         9.1064   -1.5014   -4.8239 C.3       1 CER        -0.0754 
     38 Cl1        11.4533   -1.7221    0.5534 Cl        1 CER        -0.0471 
     39 H1          4.1838   -2.0478   -2.0797 H         1 CER         0.0465 
     40 H2          2.4808   -1.4780   -2.1214 H         1 CER         0.0465 
     41 H3          2.8612   -3.1284   -1.5231 H         1 CER         0.0465 
     42 H4          5.4598   -1.1547   -0.4297 H         1 CER         0.1475 
     43 H5          1.5708   -0.9356    2.6492 H         1 CER         0.1464 
     44 H6          0.8758   -1.8297   -0.8512 H         1 CER         0.0540 
     45 H7         -0.1767   -1.1603    1.9467 H         1 CER         0.0513 
     46 H8         -0.1495   -0.0833    0.5094 H         1 CER         0.0513 
     47 H9         -2.4022   -1.0861    0.9327 H         1 CER         0.0273 
     48 H10        -1.7250   -1.5511   -0.6648 H         1 CER         0.0273 
     49 H11        -1.6860   -3.1936    1.8595 H         1 CER         0.3638 
     50 H12        -0.8776   -4.9460    0.4277 H         1 CER         0.0273 
     51 H13        -0.8255   -3.8076   -0.9609 H         1 CER         0.0273 
     52 H14         1.3995   -4.0588   -0.0100 H         1 CER         0.0513 
     53 H15         0.7867   -3.6323    1.6238 H         1 CER         0.0513 
     54 H16         3.1996   -1.8976    4.2927 H         1 CER         0.0552 
     55 H17         4.4728   -1.8012    6.4442 H         1 CER         0.0461 
     56 H18         5.0292   -0.1473    6.0179 H         1 CER         0.0461 
     57 H19         5.5308   -1.5501    5.0144 H         1 CER         0.0461 
     58 H20         2.0612   -1.0405    6.3490 H         1 CER         0.0461 
     59 H21         1.4438   -0.2608    4.8532 H         1 CER         0.0461 
     60 H22         2.5852    0.6237    5.9216 H         1 CER         0.0461 
     61 H24        10.3514    0.1880    2.3030 H         1 CER         0.0433 
     62 H25         9.7945   -2.9205   -1.2074 H         1 CER         0.4767 
     63 H26         7.3319   -4.2418    1.1025 H         1 CER         0.1692 
     64 H27         5.9627   -6.2213    0.5505 H         1 CER         0.1393 
     65 H28         5.9785   -7.1461   -1.7519 H         1 CER         0.1453 
     66 H29         7.3637   -6.0907   -3.5038 H         1 CER         0.1665 
     67 H30         8.1989   -1.5677   -2.9655 H         1 CER         0.1157 
     68 H31         6.3984   -1.5544   -4.4490 H         1 CER         0.0521 
     69 H32         6.3286   -3.0488   -3.4548 H         1 CER         0.0521 
     70 H33         6.8838   -3.1304   -5.1612 H         1 CER         0.0521 
     71 H34         8.6031   -0.5436   -5.0225 H         1 CER         0.0521 
     72 H35         9.1699   -2.0824   -5.7558 H         1 CER         0.0521 
     73 H36        10.1197   -1.3107   -4.4409 H         1 CER         0.0521 
     74 H74         8.1279    0.9041    2.9464 H         1 CER         0.0000 
@<TRIPOS>BOND
     1    1    2 1    
     2    1   39 1    
     3    1   40 1    
     4    1   41 1    
     5    2    7 ar   
     6    2    3 ar   
     7    3    4 ar   
     8    3   42 1    
     9    4    5 ar   
    10    4   18 1    
    11    5    6 ar   
    12    5   14 1    
    13    6    7 ar   
    14    6   43 1    
    15    7    8 1    
    16    8   13 1    
    17    8    9 1    
    18    8   44 1    
    19    9   10 1    
    20    9   45 1    
    21    9   46 1    
    22   10   11 1    
    23   10   47 1    
    24   10   48 1    
    25   11   12 1    
    26   11   49 1    
    27   12   13 1    
    28   12   50 1    
    29   12   51 1    
    30   13   52 1    
    31   13   53 1    
    32   14   15 1    
    33   15   16 1    
    34   15   17 1    
    35   15   54 1    
    36   16   55 1    
    37   16   56 1    
    38   16   57 1    
    39   17   58 1    
    40   17   59 1    
    41   17   60 1    
    42   18   19 2    
    43   19   24 ar   
    44   19   20 ar   
    45   20   21 ar   
    46   20   74 1    
    47   21   22 ar   
    48   21   61 1    
    49   22   38 1    
    50   22   23 ar   
    51   23   25 1    
    52   23   24 ar   
    53   25   26 1    
    54   25   62 1    
    55   26   31 ar   
    56   26   27 ar   
    57   27   28 ar   
    58   27   63 1    
    59   28   29 ar   
    60   28   64 1    
    61   29   30 ar   
    62   29   65 1    
    63   30   31 ar   
    64   30   66 1    
    65   31   32 1    
    66   32   33 2    
    67   32   34 2    
    68   32   35 1    
    69   35   36 1    
    70   35   37 1    
    71   35   67 1    
    72   36   68 1    
    73   36   69 1    
    74   36   70 1    
    75   37   71 1    
    76   37   72 1    
    77   37   73 1    
@<TRIPOS>SUBSTRUCTURE
     1 CER         1 GROUP             0       ****    0 ROOT    
@<TRIPOS>MOLECULE
5-chloro-~{N}2-[2-isopropoxy-5-methyl-4-(4-piperidyl)phenyl]-~{N}4-(2-isopropylsulfonylphenyl)pyrimidine-2,4-diamine
75   78    1
SMALL
USER_CHARGES


@<TRIPOS>ATOM
      1 C1          3.2110   -2.0865   -1.5677 C.3       1 CER        -0.0562 
      2 C2          3.3564   -1.5505   -0.1814 C.ar      1 CER        -0.0630 
      3 C3          4.6081   -1.1067    0.2454 C.ar      1 CER        -0.1307 
      4 C4          4.7664   -0.6020    1.5361 C.ar      1 CER         0.1580 
      5 C5          3.6730   -0.5409    2.4000 C.ar      1 CER         0.0623 
      6 C6          2.4213   -0.9846    1.9732 C.ar      1 CER        -0.1397 
      7 C7          2.2630   -1.4893    0.6826 C.ar      1 CER        -0.0721 
      8 C8          0.8893   -1.9668    0.2401 C.3       1 CER        -0.0178 
      9 C9         -0.2434   -1.1252    0.8493 C.3       1 CER        -0.0730 
     10 C10        -1.6120   -1.6580    0.4242 C.3       1 CER         0.1634 
     11 N1         -1.7679   -3.0713    0.7694 N.4       1 CER        -0.8232 
     12 C11        -0.7402   -3.8953    0.1323 C.3       1 CER         0.1634 
     13 C12         0.6651   -3.4564    0.5448 C.3       1 CER        -0.0730 
     14 O1          3.8070   -0.0511    3.6648 O.3       1 CER        -0.3544 
     15 C13         3.4862   -0.9335    4.7381 C.3       1 CER         0.1411 
     16 C14         4.7147   -1.1210    5.6142 C.3       1 CER        -0.1095 
     17 C15         2.3129   -0.3633    5.5195 C.3       1 CER        -0.1095 
     18 N2          6.0390   -0.1564    1.9550 N.2       1 CER        -0.7356 
     19 C16         7.3461   -0.5451    1.6072 C.ar      1 CER         0.9194 
     20 N3          8.3513    0.1108    2.2179 N.2       1 CER        -0.7398 
     21 C17         9.5902   -0.2866    1.8610 C.ar      1 CER         0.4902 
     22 C18         9.8400   -1.2863    0.9431 C.ar      1 CER        -0.3353 
     23 C19         8.7246   -1.8803    0.3889 C.ar      1 CER         0.7253 
     24 N4          7.4582   -1.5334    0.6992 N.pl3     1 CER        -0.7907 
     25 N5          8.9040   -2.9151   -0.5617 N.pl3     1 CER        -0.7551 
     26 C20         8.1312   -4.0386   -0.8969 C.ar      1 CER         0.2940 
     27 C21         7.3472   -4.6369    0.0897 C.ar      1 CER        -0.1853 
     28 C22         6.5720   -5.7548   -0.2182 C.ar      1 CER        -0.0419 
     29 C23         6.5806   -6.2744   -1.5127 C.ar      1 CER        -0.1823 
     30 C24         7.3645   -5.6761   -2.4991 C.ar      1 CER        -0.0138 
     31 C25         8.1398   -4.5583   -2.1913 C.ar      1 CER        -0.4367 
     32 S1          9.1121   -3.8379   -3.4568 S.o2      1 CER         1.3667 
     33 O2         10.4266   -3.5574   -2.9009 O.2       1 CER        -0.6585 
     34 O3          8.9895   -4.6487   -4.6586 O.2       1 CER        -0.6585 
     35 C26         8.3135   -2.2857   -3.7909 C.3       1 CER        -0.2715 
     36 C27         6.8822   -2.5211   -4.2453 C.3       1 CER        -0.0754 
     37 C28         9.1064   -1.5014   -4.8239 C.3       1 CER        -0.0754 
     38 Cl1        11.4533   -1.7221    0.5534 Cl        1 CER        -0.0471 
     39 H1          4.1838   -2.0478   -2.0797 H         1 CER         0.0465 
     40 H2          2.4808   -1.4780   -2.1214 H         1 CER         0.0465 
     41 H3          2.8612   -3.1284   -1.5231 H         1 CER         0.0465 
     42 H4          5.4598   -1.1547   -0.4297 H         1 CER         0.1475 
     43 H5          1.5708   -0.9356    2.6492 H         1 CER         0.1464 
     44 H6          0.8758   -1.8297   -0.8512 H         1 CER         0.0540 
     45 H7         -0.1767   -1.1603    1.9467 H         1 CER         0.0513 
     46 H8         -0.1495   -0.0833    0.5094 H         1 CER         0.0513 
     47 H9         -2.4022   -1.0861    0.9327 H         1 CER         0.0273 
     48 H10        -1.7250   -1.5511   -0.6648 H         1 CER         0.0273 
     49 H11        -1.6860   -3.1936    1.8595 H         1 CER         0.3638 
     50 H12        -0.8776   -4.9460    0.4277 H         1 CER         0.0273 
     51 H13        -0.8255   -3.8076   -0.9609 H         1 CER         0.0273 
     52 H14         1.3995   -4.0588   -0.0100 H         1 CER         0.0513 
     53 H15         0.7867   -3.6323    1.6238 H         1 CER         0.0513 
     54 H16         3.1996   -1.8976    4.2927 H         1 CER         0.0552 
     55 H17         4.4728   -1.8012    6.4442 H         1 CER         0.0461 
     56 H18         5.0292   -0.1473    6.0179 H         1 CER         0.0461 
     57 H19         5.5308   -1.5501    5.0144 H         1 CER         0.0461 
     58 H20         2.0612   -1.0405    6.3490 H         1 CER         0.0461 
     59 H21         1.4438   -0.2608    4.8532 H         1 CER         0.0461 
     60 H22         2.5852    0.6237    5.9216 H         1 CER         0.0461 
     61 H24        10.3514    0.1880    2.3030 H         1 CER         0.0433 
     62 H25         9.7945   -2.9205   -1.2074 H         1 CER         0.4767 
     63 H26         7.3319   -4.2418    1.1025 H         1 CER         0.1692 
     64 H27         5.9627   -6.2213    0.5505 H         1 CER         0.1393 
     65 H28         5.9785   -7.1461   -1.7519 H         1 CER         0.1453 
     66 H29         7.3637   -6.0907   -3.5038 H         1 CER         0.1665 
     67 H30         8.1989   -1.5677   -2.9655 H         1 CER         0.1157 
     68 H31         6.3984   -1.5544   -4.4490 H         1 CER         0.0521 
     69 H32         6.3286   -3.0488   -3.4548 H         1 CER         0.0521 
     70 H33         6.8838   -3.1304   -5.1612 H         1 CER         0.0521 
     71 H34         8.6031   -0.5436   -5.0225 H         1 CER         0.0521 
     72 H35         9.1699   -2.0824   -5.7558 H         1 CER         0.0521 
     73 H36        10.1197   -1.3107   -4.4409 H         1 CER         0.0521 
     74 H74        -2.7544   -3.4240    0.4340 H         1 CER         0.0000 
     75 H75         6.6133   -2.0490    0.2193 H         1 CER         0.0000 
@<TRIPOS>BOND
     1    1    2 1    
     2    1   39 1    
     3    1   40 1    
     4    1   41 1    
     5    2    7 ar   
     6    2    3 ar   
     7    3    4 ar   
     8    3   42 1    
     9    4    5 ar   
    10    4   18 1    
    11    5    6 ar   
    12    5   14 1    
    13    6    7 ar   
    14    6   43 1    
    15    7    8 1    
    16    8   13 1    
    17    8    9 1    
    18    8   44 1    
    19    9   10 1    
    20    9   45 1    
    21    9   46 1    
    22   10   11 1    
    23   10   47 1    
    24   10   48 1    
    25   11   12 1    
    26   11   49 1    
    27   11   74 1    
    28   12   13 1    
    29   12   50 1    
    30   12   51 1    
    31   13   52 1    
    32   13   53 1    
    33   14   15 1    
    34   15   16 1    
    35   15   17 1    
    36   15   54 1    
    37   16   55 1    
    38   16   56 1    
    39   16   57 1    
    40   17   58 1    
    41   17   59 1    
    42   17   60 1    
    43   18   19 2    
    44   19   24 ar   
    45   19   20 ar   
    46   20   21 ar   
    47   21   22 ar   
    48   21   61 1    
    49   22   38 1    
    50   22   23 ar   
    51   23   25 1    
    52   23   24 ar   
    53   24   75 1    
    54   25   26 1    
    55   25   62 1    
    56   26   31 ar   
    57   26   27 ar   
    58   27   28 ar   
    59   27   63 1    
    60   28   29 ar   
    61   28   64 1    
    62   29   30 ar   
    63   29   65 1    
    64   30   31 ar   
    65   30   66 1    
    66   31   32 1    
    67   32   33 2    
    68   32   34 2    
    69   32   35 1    
    70   35   36 1    
    71   35   37 1    
    72   35   67 1    
    73   36   68 1    
    74   36   69 1    
    75   36   70 1    
    76   37   71 1    
    77   37   72 1    
    78   37   73 1    
@<TRIPOS>SUBSTRUCTURE
     1 CER         1 GROUP             0       ****    0 ROOT    
@<TRIPOS>MOLECULE
5-chloro-~{N}2-[2-isopropoxy-5-methyl-4-(4-piperidyl)phenyl]-~{N}4-(2-isopropylsulfonylphenyl)pyrimidine-2,4-diamine
73   76    1
SMALL
USER_CHARGES


@<TRIPOS>ATOM
      1 C1          3.2115   -2.0848   -1.5694 C.3       1 CER        -0.0562 
      2 C2          3.3567   -1.5489   -0.1830 C.ar      1 CER        -0.0630 
      3 C3          4.6084   -1.1055    0.2442 C.ar      1 CER        -0.1307 
      4 C4          4.7664   -0.6009    1.5349 C.ar      1 CER         0.1580 
      5 C5          3.6728   -0.5396    2.3985 C.ar      1 CER         0.0623 
      6 C6          2.4211   -0.9830    1.9713 C.ar      1 CER        -0.1397 
      7 C7          2.2630   -1.4876    0.6806 C.ar      1 CER        -0.0721 
      8 C8          0.8893   -1.9647    0.2378 C.3       1 CER        -0.0178 
      9 C9         -0.2433   -1.1228    0.8467 C.3       1 CER        -0.0730 
     10 C10        -1.6119   -1.6552    0.4212 C.3       1 CER         0.1634 
     11 N1         -1.7683   -3.0685    0.7663 N.3       1 CER        -0.8232 
     12 C11        -0.7407   -3.8927    0.1294 C.3       1 CER         0.1634 
     13 C12         0.6646   -3.4542    0.5423 C.3       1 CER        -0.0730 
     14 O1          3.8065   -0.0499    3.6634 O.3       1 CER        -0.3544 
     15 C13         3.4852   -0.9323    4.7365 C.3       1 CER         0.1411 
     16 C14         4.7135   -1.1201    5.6130 C.3       1 CER        -0.1095 
     17 C15         2.3119   -0.3619    5.5177 C.3       1 CER        -0.1095 
     18 N2          6.0390   -0.1557    1.9542 N.pl3     1 CER        -0.7356 
     19 C16         7.3461   -0.5446    1.6067 C.ar      1 CER         0.9194 
     20 N3          8.3513    0.1108    2.2179 N.ar      1 CER        -0.7398 
     21 C17         9.5902   -0.2868    1.8612 C.ar      1 CER         0.4902 
     22 C18         9.8400   -1.2863    0.9431 C.ar      1 CER        -0.3353 
     23 C19         8.7246   -1.8802    0.3887 C.ar      1 CER         0.7253 
     24 N4          7.4582   -1.5329    0.6987 N.2       1 CER        -0.7907 
     25 N5          8.9040   -2.9152   -0.5617 N.2       1 CER        -0.7551 
     26 C20         8.1311   -4.0386   -0.8967 C.ar      1 CER         0.2940 
     27 C21         7.3471   -4.6367    0.0900 C.ar      1 CER        -0.1853 
     28 C22         6.5718   -5.7546   -0.2178 C.ar      1 CER        -0.0419 
     29 C23         6.5804   -6.2745   -1.5122 C.ar      1 CER        -0.1823 
     30 C24         7.3644   -5.6764   -2.4987 C.ar      1 CER        -0.0138 
     31 C25         8.1398   -4.5585   -2.1910 C.ar      1 CER        -0.4367 
     32 S1          9.1123   -3.8385   -3.4566 S.o2      1 CER         1.3667 
     33 O2         10.4267   -3.5580   -2.9006 O.2       1 CER        -0.6585 
     34 O3          8.9897   -4.6495   -4.6583 O.2       1 CER        -0.6585 
     35 C26         8.3138   -2.2863   -3.7910 C.3       1 CER        -0.2715 
     36 C27         6.8824   -2.5217   -4.2455 C.3       1 CER        -0.0754 
     37 C28         9.1068   -1.5022   -4.8241 C.3       1 CER        -0.0754 
     38 Cl1        11.4533   -1.7221    0.5534 Cl        1 CER        -0.0471 
     39 H1          4.1844   -2.0464   -2.0812 H         1 CER         0.0465 
     40 H2          2.4816   -1.4761   -2.1232 H         1 CER         0.0465 
     41 H3          2.8614   -3.1267   -1.5250 H         1 CER         0.0465 
     42 H4          5.4602   -1.1537   -0.4307 H         1 CER         0.1475 
     43 H5          1.5704   -0.9338    2.6471 H         1 CER         0.1464 
     44 H6          0.8762   -1.8275   -0.8535 H         1 CER         0.0540 
     45 H7         -0.1770   -1.1580    1.9441 H         1 CER         0.0513 
     46 H8         -0.1491   -0.0809    0.5069 H         1 CER         0.0513 
     47 H9         -2.4021   -1.0832    0.9295 H         1 CER         0.0273 
     48 H10        -1.7246   -1.5482   -0.6678 H         1 CER         0.0273 
     49 H12        -0.8783   -4.9434    0.4246 H         1 CER         0.0273 
     50 H13        -0.8256   -3.8049   -0.9638 H         1 CER         0.0273 
     51 H14         1.3991   -4.0567   -0.0123 H         1 CER         0.0513 
     52 H15         0.7859   -3.6303    1.6214 H         1 CER         0.0513 
     53 H16         3.1985   -1.8963    4.2910 H         1 CER         0.0552 
     54 H17         4.4712   -1.8003    6.4428 H         1 CER         0.0461 
     55 H18         5.0281   -0.1465    6.0168 H         1 CER         0.0461 
     56 H19         5.5296   -1.5495    5.0134 H         1 CER         0.0461 
     57 H20         2.0598   -1.0390    6.3471 H         1 CER         0.0461 
     58 H21         1.4429   -0.2591    4.8511 H         1 CER         0.0461 
     59 H22         2.5843    0.6250    5.9199 H         1 CER         0.0461 
     60 H23         5.8812    0.6463    2.6903 H         1 CER         0.4752 
     61 H24        10.3514    0.1876    2.3034 H         1 CER         0.0433 
     62 H26         7.3317   -4.2415    1.1027 H         1 CER         0.1692 
     63 H27         5.9624   -6.2210    0.5510 H         1 CER         0.1393 
     64 H28         5.9783   -7.1461   -1.7513 H         1 CER         0.1453 
     65 H29         7.3637   -6.0911   -3.5033 H         1 CER         0.1665 
     66 H30         8.1992   -1.5681   -2.9657 H         1 CER         0.1157 
     67 H31         6.3988   -1.5550   -4.4493 H         1 CER         0.0521 
     68 H32         6.3287   -3.0492   -3.4549 H         1 CER         0.0521 
     69 H33         6.8841   -3.1312   -5.1612 H         1 CER         0.0521 
     70 H34         8.6036   -0.5444   -5.0229 H         1 CER         0.0521 
     71 H35         9.1703   -2.0834   -5.7559 H         1 CER         0.0521 
     72 H36        10.1201   -1.3115   -4.4411 H         1 CER         0.0521 
     73 H73        -1.6867   -3.1910    1.8564 H         1 CER         0.0000 
@<TRIPOS>BOND
     1    1    2 1    
     2    1   39 1    
     3    1   40 1    
     4    1   41 1    
     5    2    7 ar   
     6    2    3 ar   
     7    3    4 ar   
     8    3   42 1    
     9    4    5 ar   
    10    4   18 1    
    11    5    6 ar   
    12    5   14 1    
    13    6    7 ar   
    14    6   43 1    
    15    7    8 1    
    16    8   13 1    
    17    8    9 1    
    18    8   44 1    
    19    9   10 1    
    20    9   45 1    
    21    9   46 1    
    22   10   11 1    
    23   10   47 1    
    24   10   48 1    
    25   11   12 1    
    26   11   73 1    
    27   12   13 1    
    28   12   49 1    
    29   12   50 1    
    30   13   51 1    
    31   13   52 1    
    32   14   15 1    
    33   15   16 1    
    34   15   17 1    
    35   15   53 1    
    36   16   54 1    
    37   16   55 1    
    38   16   56 1    
    39   17   57 1    
    40   17   58 1    
    41   17   59 1    
    42   18   19 1    
    43   18   60 1    
    44   19   24 ar   
    45   19   20 ar   
    46   20   21 ar   
    47   21   22 ar   
    48   21   61 1    
    49   22   38 1    
    50   22   23 ar   
    51   23   25 2    
    52   23   24 ar   
    53   25   26 1    
    54   26   31 ar   
    55   26   27 ar   
    56   27   28 ar   
    57   27   62 1    
    58   28   29 ar   
    59   28   63 1    
    60   29   30 ar   
    61   29   64 1    
    62   30   31 ar   
    63   30   65 1    
    64   31   32 1    
    65   32   33 2    
    66   32   34 2    
    67   32   35 1    
    68   35   36 1    
    69   35   37 1    
    70   35   66 1    
    71   36   67 1    
    72   36   68 1    
    73   36   69 1    
    74   37   70 1    
    75   37   71 1    
    76   37   72 1    
@<TRIPOS>SUBSTRUCTURE
     1 CER         1 GROUP             0       ****    0 ROOT    
