5-chloro-~{N}2-[2-isopropoxy-5-methyl-4-(4-piperidyl)phenyl]-~{N}4-(2-isopropylsulfonylphenyl)pyrimidine-2,4-diamine
                    3D
 Structure written by MMmdl.
 75 78  0  0  1  0            999 V2000
    3.2107   -2.0875   -1.5667 C   0  0  0  0  0  0
    3.3563   -1.5514   -0.1804 C   0  0  0  0  0  0
    4.6080   -1.1075    0.2462 C   0  0  0  0  0  0
    4.7664   -0.6027    1.5368 C   0  0  0  0  0  0
    3.6731   -0.5417    2.4009 C   0  0  0  0  0  0
    2.4214   -0.9856    1.9743 C   0  0  0  0  0  0
    2.2630   -1.4904    0.6837 C   0  0  0  0  0  0
    0.8893   -1.9681    0.2415 C   0  0  0  0  0  0
   -0.2434   -1.1266    0.8508 C   0  0  0  0  0  0
   -1.6120   -1.6596    0.4259 C   0  0  0  0  0  0
   -1.7677   -3.0729    0.7712 N   0  3  0  0  0  0
   -0.7400   -3.8968    0.1340 C   0  0  0  0  0  0
    0.6653   -3.4577    0.5463 C   0  0  0  0  0  0
    3.8072   -0.0518    3.6657 O   0  0  0  0  0  0
    3.4867   -0.9342    4.7390 C   0  0  0  0  0  0
    4.7154   -1.1215    5.6150 C   0  0  0  0  0  0
    2.3135   -0.3642    5.5206 C   0  0  0  0  0  0
    6.0390   -0.1569    1.9555 N   0  0  0  0  0  0
    7.3461   -0.5454    1.6075 C   0  0  0  0  0  0
    8.3513    0.1108    2.2179 N   0  0  0  0  0  0
    9.5902   -0.2866    1.8610 C   0  0  0  0  0  0
    9.8400   -1.2863    0.9431 C   0  0  0  0  0  0
    8.7246   -1.8805    0.3891 C   0  0  0  0  0  0
    7.4582   -1.5337    0.6996 N   0  0  0  0  0  0
    8.9040   -2.9155   -0.5613 N   0  0  0  0  0  0
    8.1313   -4.0392   -0.8960 C   0  0  0  0  0  0
    7.3477   -4.6374    0.0909 C   0  0  0  0  0  0
    6.5726   -5.7555   -0.2166 C   0  0  0  0  0  0
    6.5810   -6.2755   -1.5109 C   0  0  0  0  0  0
    7.3646   -5.6773   -2.4977 C   0  0  0  0  0  0
    8.1398   -4.5592   -2.1903 C   0  0  0  0  0  0
    9.1117   -3.8390   -3.4562 S   0  0  0  0  0  0
   10.4262   -3.5581   -2.9006 O   0  0  0  0  0  0
    8.9890   -4.6501   -4.6578 O   0  0  0  0  0  0
    8.3127   -2.2870   -3.7905 C   0  0  0  0  0  0
    6.8813   -2.5228   -4.2446 C   0  0  0  0  0  0
    9.1052   -1.5028   -4.8239 C   0  0  0  0  0  0
   11.4533   -1.7221    0.5534 Cl  0  0  0  0  0  0
    4.1834   -2.0487   -2.0788 H   0  0  0  0  0  0
    2.4803   -1.4791   -2.1203 H   0  0  0  0  0  0
    2.8611   -3.1295   -1.5220 H   0  0  0  0  0  0
    5.4596   -1.1554   -0.4290 H   0  0  0  0  0  0
    1.5710   -0.9367    2.6504 H   0  0  0  0  0  0
    0.8756   -1.8310   -0.8498 H   0  0  0  0  0  0
   -0.1766   -1.1616    1.9482 H   0  0  0  0  0  0
   -0.1498   -0.0847    0.5108 H   0  0  0  0  0  0
   -2.4022   -1.0878    0.9345 H   0  0  0  0  0  0
   -1.7252   -1.5527   -0.6630 H   0  0  0  0  0  0
   -1.6856   -3.1952    1.8613 H   0  0  0  0  0  0
   -0.8771   -4.9475    0.4294 H   0  0  0  0  0  0
   -0.8254   -3.8091   -0.9592 H   0  0  0  0  0  0
    1.3997   -4.0600   -0.0086 H   0  0  0  0  0  0
    0.7871   -3.6336    1.6253 H   0  0  0  0  0  0
    3.2001   -1.8984    4.2937 H   0  0  0  0  0  0
    4.4737   -1.8017    6.4450 H   0  0  0  0  0  0
    5.0298   -0.1477    6.0186 H   0  0  0  0  0  0
    5.5315   -1.5506    5.0151 H   0  0  0  0  0  0
    2.0620   -1.0413    6.3502 H   0  0  0  0  0  0
    1.4442   -0.2618    4.8544 H   0  0  0  0  0  0
    2.5857    0.6229    5.9226 H   0  0  0  0  0  0
    6.1221    0.6503    2.6981 H   0  0  0  0  0  0
   10.3954    0.2467    2.3569 H   0  0  0  0  0  0
    9.7944   -2.9209   -1.2072 H   0  0  0  0  0  0
    7.3325   -4.2421    1.1036 H   0  0  0  0  0  0
    5.9636   -6.2220    0.5524 H   0  0  0  0  0  0
    5.9791   -7.1473   -1.7498 H   0  0  0  0  0  0
    7.3637   -6.0921   -3.5023 H   0  0  0  0  0  0
    8.1981   -1.5688   -2.9652 H   0  0  0  0  0  0
    6.3973   -1.5562   -4.4484 H   0  0  0  0  0  0
    6.3280   -3.0504   -3.4538 H   0  0  0  0  0  0
    6.8828   -3.1324   -5.1603 H   0  0  0  0  0  0
    8.6018   -0.5452   -5.0226 H   0  0  0  0  0  0
    9.1686   -2.0840   -5.7557 H   0  0  0  0  0  0
   10.1186   -1.3118   -4.4411 H   0  0  0  0  0  0
   -2.7542   -3.4258    0.4360 H   0  0  0  0  0  0
  1  2  1  0  0  0
  1 39  1  0  0  0
  1 40  1  0  0  0
  1 41  1  0  0  0
  2  7  2  0  0  0
  2  3  1  0  0  0
  3  4  2  0  0  0
  3 42  1  0  0  0
  4  5  1  0  0  0
  4 18  1  0  0  0
  5  6  2  0  0  0
  5 14  1  0  0  0
  6  7  1  0  0  0
  6 43  1  0  0  0
  7  8  1  0  0  0
  8 13  1  0  0  0
  8  9  1  0  0  0
  8 44  1  0  0  0
  9 10  1  0  0  0
  9 45  1  0  0  0
  9 46  1  0  0  0
 10 11  1  0  0  0
 10 47  1  0  0  0
 10 48  1  0  0  0
 11 12  1  0  0  0
 11 49  1  0  0  0
 11 75  1  0  0  0
 12 13  1  0  0  0
 12 50  1  0  0  0
 12 51  1  0  0  0
 13 52  1  0  0  0
 13 53  1  0  0  0
 14 15  1  0  0  0
 15 16  1  0  0  0
 15 17  1  0  0  0
 15 54  1  0  0  0
 16 55  1  0  0  0
 16 56  1  0  0  0
 16 57  1  0  0  0
 17 58  1  0  0  0
 17 59  1  0  0  0
 17 60  1  0  0  0
 18 19  1  0  0  0
 18 61  1  0  0  0
 19 24  2  0  0  0
 19 20  1  0  0  0
 20 21  2  0  0  0
 21 22  1  0  0  0
 21 62  1  0  0  0
 22 23  2  0  0  0
 22 38  1  0  0  0
 23 24  1  0  0  0
 23 25  1  0  0  0
 25 26  1  0  0  0
 25 63  1  0  0  0
 26 31  2  0  0  0
 26 27  1  0  0  0
 27 28  2  0  0  0
 27 64  1  0  0  0
 28 29  1  0  0  0
 28 65  1  0  0  0
 29 30  2  0  0  0
 29 66  1  0  0  0
 30 31  1  0  0  0
 30 67  1  0  0  0
 31 32  1  0  0  0
 32 33  2  0  0  0
 32 34  2  0  0  0
 32 35  1  0  0  0
 35 36  1  0  0  0
 35 37  1  0  0  0
 35 68  1  0  0  0
 36 69  1  0  0  0
 36 70  1  0  0  0
 36 71  1  0  0  0
 37 72  1  0  0  0
 37 73  1  0  0  0
 37 74  1  0  0  0
M  CHG  1  11   1
M  END
> <s_m_source_file>
/Users/andrea/Development/mcce-charges/epik_inhibitors/output/Ceritinib/Ceritinib-input.mol2

> <i_m_source_file_index>
1

> <r_lp_tautomer_probability>
0.999998883680446

> <r_epik_Ionization_Penalty>
  0.0012

> <r_epik_Ionization_Penalty_Charging>
  0.0011

> <r_epik_Ionization_Penalty_Neutral>
  0.0001

> <r_epik_State_Penalty>
  0.0011

> <i_epik_Tot_Q>
1

$$$$
5-chloro-~{N}2-[2-isopropoxy-5-methyl-4-(4-piperidyl)phenyl]-~{N}4-(2-isopropylsulfonylphenyl)pyrimidine-2,4-diamine
                    3D
 Structure written by MMmdl.
 74 77  0  0  1  0            999 V2000
    3.2107   -2.0875   -1.5667 C   0  0  0  0  0  0
    3.3563   -1.5514   -0.1804 C   0  0  0  0  0  0
    4.6080   -1.1075    0.2462 C   0  0  0  0  0  0
    4.7664   -0.6027    1.5368 C   0  0  0  0  0  0
    3.6731   -0.5417    2.4009 C   0  0  0  0  0  0
    2.4214   -0.9856    1.9743 C   0  0  0  0  0  0
    2.2630   -1.4904    0.6837 C   0  0  0  0  0  0
    0.8893   -1.9681    0.2415 C   0  0  0  0  0  0
   -0.2434   -1.1266    0.8508 C   0  0  0  0  0  0
   -1.6120   -1.6596    0.4259 C   0  0  0  0  0  0
   -1.7677   -3.0729    0.7712 N   0  0  0  0  0  0
   -0.7400   -3.8968    0.1340 C   0  0  0  0  0  0
    0.6653   -3.4577    0.5463 C   0  0  0  0  0  0
    3.8072   -0.0518    3.6657 O   0  0  0  0  0  0
    3.4867   -0.9342    4.7390 C   0  0  0  0  0  0
    4.7154   -1.1215    5.6150 C   0  0  0  0  0  0
    2.3135   -0.3642    5.5206 C   0  0  0  0  0  0
    6.0390   -0.1569    1.9555 N   0  0  0  0  0  0
    7.3461   -0.5454    1.6075 C   0  0  0  0  0  0
    8.3513    0.1108    2.2179 N   0  0  0  0  0  0
    9.5902   -0.2866    1.8610 C   0  0  0  0  0  0
    9.8400   -1.2863    0.9431 C   0  0  0  0  0  0
    8.7246   -1.8805    0.3891 C   0  0  0  0  0  0
    7.4582   -1.5337    0.6996 N   0  0  0  0  0  0
    8.9040   -2.9155   -0.5613 N   0  0  0  0  0  0
    8.1313   -4.0392   -0.8960 C   0  0  0  0  0  0
    7.3477   -4.6374    0.0909 C   0  0  0  0  0  0
    6.5726   -5.7555   -0.2166 C   0  0  0  0  0  0
    6.5810   -6.2755   -1.5109 C   0  0  0  0  0  0
    7.3646   -5.6773   -2.4977 C   0  0  0  0  0  0
    8.1398   -4.5592   -2.1903 C   0  0  0  0  0  0
    9.1117   -3.8390   -3.4562 S   0  0  0  0  0  0
   10.4262   -3.5581   -2.9006 O   0  0  0  0  0  0
    8.9890   -4.6501   -4.6578 O   0  0  0  0  0  0
    8.3127   -2.2870   -3.7905 C   0  0  0  0  0  0
    6.8813   -2.5228   -4.2446 C   0  0  0  0  0  0
    9.1052   -1.5028   -4.8239 C   0  0  0  0  0  0
   11.4533   -1.7221    0.5534 Cl  0  0  0  0  0  0
    4.1834   -2.0487   -2.0788 H   0  0  0  0  0  0
    2.4803   -1.4791   -2.1203 H   0  0  0  0  0  0
    2.8611   -3.1295   -1.5220 H   0  0  0  0  0  0
    5.4596   -1.1554   -0.4290 H   0  0  0  0  0  0
    1.5710   -0.9367    2.6504 H   0  0  0  0  0  0
    0.8756   -1.8310   -0.8498 H   0  0  0  0  0  0
   -0.1766   -1.1616    1.9482 H   0  0  0  0  0  0
   -0.1498   -0.0847    0.5108 H   0  0  0  0  0  0
   -2.4022   -1.0878    0.9345 H   0  0  0  0  0  0
   -1.7252   -1.5527   -0.6630 H   0  0  0  0  0  0
   -1.6856   -3.1952    1.8613 H   0  0  0  0  0  0
   -0.8771   -4.9475    0.4294 H   0  0  0  0  0  0
   -0.8254   -3.8091   -0.9592 H   0  0  0  0  0  0
    1.3997   -4.0600   -0.0086 H   0  0  0  0  0  0
    0.7871   -3.6336    1.6253 H   0  0  0  0  0  0
    3.2001   -1.8984    4.2937 H   0  0  0  0  0  0
    4.4737   -1.8017    6.4450 H   0  0  0  0  0  0
    5.0298   -0.1477    6.0186 H   0  0  0  0  0  0
    5.5315   -1.5506    5.0151 H   0  0  0  0  0  0
    2.0620   -1.0413    6.3502 H   0  0  0  0  0  0
    1.4442   -0.2618    4.8544 H   0  0  0  0  0  0
    2.5857    0.6229    5.9226 H   0  0  0  0  0  0
    6.1221    0.6503    2.6981 H   0  0  0  0  0  0
   10.3954    0.2467    2.3569 H   0  0  0  0  0  0
    9.7944   -2.9209   -1.2072 H   0  0  0  0  0  0
    7.3325   -4.2421    1.1036 H   0  0  0  0  0  0
    5.9636   -6.2220    0.5524 H   0  0  0  0  0  0
    5.9791   -7.1473   -1.7498 H   0  0  0  0  0  0
    7.3637   -6.0921   -3.5023 H   0  0  0  0  0  0
    8.1981   -1.5688   -2.9652 H   0  0  0  0  0  0
    6.3973   -1.5562   -4.4484 H   0  0  0  0  0  0
    6.3280   -3.0504   -3.4538 H   0  0  0  0  0  0
    6.8828   -3.1324   -5.1603 H   0  0  0  0  0  0
    8.6018   -0.5452   -5.0226 H   0  0  0  0  0  0
    9.1686   -2.0840   -5.7557 H   0  0  0  0  0  0
   10.1186   -1.3118   -4.4411 H   0  0  0  0  0  0
  1  2  1  0  0  0
  1 39  1  0  0  0
  1 40  1  0  0  0
  1 41  1  0  0  0
  2  7  2  0  0  0
  2  3  1  0  0  0
  3  4  2  0  0  0
  3 42  1  0  0  0
  4  5  1  0  0  0
  4 18  1  0  0  0
  5  6  2  0  0  0
  5 14  1  0  0  0
  6  7  1  0  0  0
  6 43  1  0  0  0
  7  8  1  0  0  0
  8 13  1  0  0  0
  8  9  1  0  0  0
  8 44  1  0  0  0
  9 10  1  0  0  0
  9 45  1  0  0  0
  9 46  1  0  0  0
 10 11  1  0  0  0
 10 47  1  0  0  0
 10 48  1  0  0  0
 11 12  1  0  0  0
 11 49  1  0  0  0
 12 13  1  0  0  0
 12 50  1  0  0  0
 12 51  1  0  0  0
 13 52  1  0  0  0
 13 53  1  0  0  0
 14 15  1  0  0  0
 15 16  1  0  0  0
 15 17  1  0  0  0
 15 54  1  0  0  0
 16 55  1  0  0  0
 16 56  1  0  0  0
 16 57  1  0  0  0
 17 58  1  0  0  0
 17 59  1  0  0  0
 17 60  1  0  0  0
 18 19  1  0  0  0
 18 61  1  0  0  0
 19 24  2  0  0  0
 19 20  1  0  0  0
 20 21  2  0  0  0
 21 22  1  0  0  0
 21 62  1  0  0  0
 22 23  2  0  0  0
 22 38  1  0  0  0
 23 24  1  0  0  0
 23 25  1  0  0  0
 25 26  1  0  0  0
 25 63  1  0  0  0
 26 31  2  0  0  0
 26 27  1  0  0  0
 27 28  2  0  0  0
 27 64  1  0  0  0
 28 29  1  0  0  0
 28 65  1  0  0  0
 29 30  2  0  0  0
 29 66  1  0  0  0
 30 31  1  0  0  0
 30 67  1  0  0  0
 31 32  1  0  0  0
 32 33  2  0  0  0
 32 34  2  0  0  0
 32 35  1  0  0  0
 35 36  1  0  0  0
 35 37  1  0  0  0
 35 68  1  0  0  0
 36 69  1  0  0  0
 36 70  1  0  0  0
 36 71  1  0  0  0
 37 72  1  0  0  0
 37 73  1  0  0  0
 37 74  1  0  0  0
M  END
> <s_m_source_file>
/Users/andrea/Development/mcce-charges/epik_inhibitors/output/Ceritinib/Ceritinib-input.mol2

> <i_m_source_file_index>
1

> <r_lp_tautomer_probability>
0.999998883680446

> <r_epik_Ionization_Penalty>
  3.7180

> <r_epik_Ionization_Penalty_Charging>
  0.0000

> <r_epik_Ionization_Penalty_Neutral>
  3.7180

> <r_epik_State_Penalty>
  3.8197

> <i_epik_Tot_Q>
0

$$$$
5-chloro-~{N}2-[2-isopropoxy-5-methyl-4-(4-piperidyl)phenyl]-~{N}4-(2-isopropylsulfonylphenyl)pyrimidine-2,4-diamine
                    3D
 Structure written by MMmdl.
 76 79  0  0  1  0            999 V2000
    3.2114   -2.0849   -1.5694 C   0  0  0  0  0  0
    3.3567   -1.5490   -0.1830 C   0  0  0  0  0  0
    4.6084   -1.1056    0.2442 C   0  0  0  0  0  0
    4.7664   -0.6010    1.5349 C   0  0  0  0  0  0
    3.6728   -0.5396    2.3986 C   0  0  0  0  0  0
    2.4211   -0.9830    1.9714 C   0  0  0  0  0  0
    2.2630   -1.4876    0.6807 C   0  0  0  0  0  0
    0.8893   -1.9647    0.2379 C   0  0  0  0  0  0
   -0.2433   -1.1229    0.8468 C   0  0  0  0  0  0
   -1.6119   -1.6553    0.4212 C   0  0  0  0  0  0
   -1.7683   -3.0686    0.7663 N   0  3  0  0  0  0
   -0.7407   -3.8928    0.1295 C   0  0  0  0  0  0
    0.6646   -3.4543    0.5424 C   0  0  0  0  0  0
    3.8065   -0.0499    3.6635 O   0  0  0  0  0  0
    3.4852   -0.9323    4.7365 C   0  0  0  0  0  0
    4.7135   -1.1201    5.6130 C   0  0  0  0  0  0
    2.3119   -0.3619    5.5177 C   0  0  0  0  0  0
    6.0390   -0.1557    1.9542 N   0  0  0  0  0  0
    7.3461   -0.5447    1.6067 C   0  0  0  0  0  0
    8.3513    0.1108    2.2179 N   0  0  0  0  0  0
    9.5902   -0.2868    1.8612 C   0  0  0  0  0  0
    9.8400   -1.2863    0.9431 C   0  0  0  0  0  0
    8.7246   -1.8802    0.3888 C   0  0  0  0  0  0
    7.4582   -1.5329    0.6988 N   0  0  0  0  0  0
    8.9040   -2.9152   -0.5617 N   0  3  0  0  0  0
    8.1311   -4.0387   -0.8966 C   0  0  0  0  0  0
    7.3471   -4.6367    0.0900 C   0  0  0  0  0  0
    6.5718   -5.7546   -0.2178 C   0  0  0  0  0  0
    6.5804   -6.2745   -1.5121 C   0  0  0  0  0  0
    7.3644   -5.6765   -2.4987 C   0  0  0  0  0  0
    8.1398   -4.5586   -2.1910 C   0  0  0  0  0  0
    9.1123   -3.8385   -3.4566 S   0  0  0  0  0  0
   10.4267   -3.5580   -2.9006 O   0  0  0  0  0  0
    8.9897   -4.6495   -4.6583 O   0  0  0  0  0  0
    8.3137   -2.2863   -3.7910 C   0  0  0  0  0  0
    6.8824   -2.5217   -4.2455 C   0  0  0  0  0  0
    9.1067   -1.5022   -4.8241 C   0  0  0  0  0  0
   11.4533   -1.7221    0.5534 Cl  0  0  0  0  0  0
    4.1844   -2.0464   -2.0811 H   0  0  0  0  0  0
    2.4816   -1.4761   -2.1232 H   0  0  0  0  0  0
    2.8614   -3.1267   -1.5249 H   0  0  0  0  0  0
    5.4602   -1.1537   -0.4306 H   0  0  0  0  0  0
    1.5704   -0.9338    2.6471 H   0  0  0  0  0  0
    0.8762   -1.8275   -0.8535 H   0  0  0  0  0  0
   -0.1770   -1.1580    1.9442 H   0  0  0  0  0  0
   -0.1491   -0.0809    0.5069 H   0  0  0  0  0  0
   -2.4021   -1.0833    0.9296 H   0  0  0  0  0  0
   -1.7246   -1.5483   -0.6677 H   0  0  0  0  0  0
   -1.6867   -3.1910    1.8564 H   0  0  0  0  0  0
   -0.8783   -4.9435    0.4247 H   0  0  0  0  0  0
   -0.8256   -3.8050   -0.9637 H   0  0  0  0  0  0
    1.3991   -4.0568   -0.0122 H   0  0  0  0  0  0
    0.7859   -3.6303    1.6215 H   0  0  0  0  0  0
    3.1985   -1.8963    4.2910 H   0  0  0  0  0  0
    4.4712   -1.8003    6.4429 H   0  0  0  0  0  0
    5.0281   -0.1465    6.0169 H   0  0  0  0  0  0
    5.5297   -1.5495    5.0134 H   0  0  0  0  0  0
    2.0598   -1.0390    6.3471 H   0  0  0  0  0  0
    1.4429   -0.2591    4.8511 H   0  0  0  0  0  0
    2.5843    0.6250    5.9199 H   0  0  0  0  0  0
    5.8812    0.6463    2.6903 H   0  0  0  0  0  0
   10.3514    0.1876    2.3034 H   0  0  0  0  0  0
    8.1279    0.9040    2.9466 H   0  0  0  0  0  0
    7.3317   -4.2415    1.1027 H   0  0  0  0  0  0
    5.9625   -6.2210    0.5510 H   0  0  0  0  0  0
    5.9784   -7.1462   -1.7512 H   0  0  0  0  0  0
    7.3637   -6.0912   -3.5033 H   0  0  0  0  0  0
    8.1991   -1.5681   -2.9657 H   0  0  0  0  0  0
    6.3987   -1.5550   -4.4493 H   0  0  0  0  0  0
    6.3287   -3.0493   -3.4548 H   0  0  0  0  0  0
    6.8840   -3.1312   -5.1612 H   0  0  0  0  0  0
    8.6036   -0.5445   -5.0229 H   0  0  0  0  0  0
    9.1703   -2.0834   -5.7559 H   0  0  0  0  0  0
   10.1201   -1.3115   -4.4411 H   0  0  0  0  0  0
    9.7946   -2.9207   -1.2073 H   0  0  0  0  0  0
   -2.7548   -3.4210    0.4306 H   0  0  0  0  0  0
  1  2  1  0  0  0
  1 39  1  0  0  0
  1 40  1  0  0  0
  1 41  1  0  0  0
  2  7  2  0  0  0
  2  3  1  0  0  0
  3  4  2  0  0  0
  3 42  1  0  0  0
  4  5  1  0  0  0
  4 18  1  0  0  0
  5  6  2  0  0  0
  5 14  1  0  0  0
  6  7  1  0  0  0
  6 43  1  0  0  0
  7  8  1  0  0  0
  8 13  1  0  0  0
  8  9  1  0  0  0
  8 44  1  0  0  0
  9 10  1  0  0  0
  9 45  1  0  0  0
  9 46  1  0  0  0
 10 11  1  0  0  0
 10 47  1  0  0  0
 10 48  1  0  0  0
 11 12  1  0  0  0
 11 49  1  0  0  0
 11 76  1  0  0  0
 12 13  1  0  0  0
 12 50  1  0  0  0
 12 51  1  0  0  0
 13 52  1  0  0  0
 13 53  1  0  0  0
 14 15  1  0  0  0
 15 16  1  0  0  0
 15 17  1  0  0  0
 15 54  1  0  0  0
 16 55  1  0  0  0
 16 56  1  0  0  0
 16 57  1  0  0  0
 17 58  1  0  0  0
 17 59  1  0  0  0
 17 60  1  0  0  0
 18 19  1  0  0  0
 18 61  1  0  0  0
 19 24  2  0  0  0
 19 20  1  0  0  0
 20 63  1  0  0  0
 20 21  1  0  0  0
 21 22  2  0  0  0
 21 62  1  0  0  0
 22 38  1  0  0  0
 22 23  1  0  0  0
 23 25  2  0  0  0
 23 24  1  0  0  0
 25 26  1  0  0  0
 25 75  1  0  0  0
 26 31  2  0  0  0
 26 27  1  0  0  0
 27 28  2  0  0  0
 27 64  1  0  0  0
 28 29  1  0  0  0
 28 65  1  0  0  0
 29 30  2  0  0  0
 29 66  1  0  0  0
 30 31  1  0  0  0
 30 67  1  0  0  0
 31 32  1  0  0  0
 32 33  2  0  0  0
 32 34  2  0  0  0
 32 35  1  0  0  0
 35 36  1  0  0  0
 35 37  1  0  0  0
 35 68  1  0  0  0
 36 69  1  0  0  0
 36 70  1  0  0  0
 36 71  1  0  0  0
 37 72  1  0  0  0
 37 73  1  0  0  0
 37 74  1  0  0  0
M  CHG  2  11   1  25   1
M  END
> <s_m_source_file>
/Users/andrea/Development/mcce-charges/epik_inhibitors/output/Ceritinib/Ceritinib-input.mol2

> <i_m_source_file_index>
1

> <r_epik_Ionization_Penalty>
  0.8643

> <r_epik_Ionization_Penalty_Charging>
  0.0019

> <r_epik_Ionization_Penalty_Neutral>
  0.8624

> <r_epik_State_Penalty>
  5.5309

> <i_epik_Tot_Q>
2

> <s_epik_Chemistry_Notes>
This compound has an imine and may undergo hydrolysis.

$$$$
5-chloro-~{N}2-[2-isopropoxy-5-methyl-4-(4-piperidyl)phenyl]-~{N}4-(2-isopropylsulfonylphenyl)pyrimidine-2,4-diamine
                    3D
 Structure written by MMmdl.
 76 79  0  0  1  0            999 V2000
    3.2114   -2.0849   -1.5694 C   0  0  0  0  0  0
    3.3567   -1.5490   -0.1830 C   0  0  0  0  0  0
    4.6084   -1.1056    0.2442 C   0  0  0  0  0  0
    4.7664   -0.6010    1.5349 C   0  0  0  0  0  0
    3.6728   -0.5396    2.3986 C   0  0  0  0  0  0
    2.4211   -0.9830    1.9714 C   0  0  0  0  0  0
    2.2630   -1.4876    0.6807 C   0  0  0  0  0  0
    0.8893   -1.9647    0.2379 C   0  0  0  0  0  0
   -0.2433   -1.1229    0.8468 C   0  0  0  0  0  0
   -1.6119   -1.6553    0.4212 C   0  0  0  0  0  0
   -1.7683   -3.0686    0.7663 N   0  3  0  0  0  0
   -0.7407   -3.8928    0.1295 C   0  0  0  0  0  0
    0.6646   -3.4543    0.5424 C   0  0  0  0  0  0
    3.8065   -0.0499    3.6635 O   0  0  0  0  0  0
    3.4852   -0.9323    4.7365 C   0  0  0  0  0  0
    4.7135   -1.1201    5.6130 C   0  0  0  0  0  0
    2.3119   -0.3619    5.5177 C   0  0  0  0  0  0
    6.0390   -0.1557    1.9542 N   0  0  0  0  0  0
    7.3461   -0.5447    1.6067 C   0  0  0  0  0  0
    8.3513    0.1108    2.2179 N   0  0  0  0  0  0
    9.5902   -0.2868    1.8612 C   0  0  0  0  0  0
    9.8400   -1.2863    0.9431 C   0  0  0  0  0  0
    8.7246   -1.8802    0.3888 C   0  0  0  0  0  0
    7.4582   -1.5329    0.6988 N   0  0  0  0  0  0
    8.9040   -2.9152   -0.5617 N   0  3  0  0  0  0
    9.9169   -3.1765   -1.4984 C   0  0  0  0  0  0
   10.6188   -2.1046   -2.0499 C   0  0  0  0  0  0
   11.6284   -2.3385   -2.9834 C   0  0  0  0  0  0
   11.9362   -3.6442   -3.3655 C   0  0  0  0  0  0
   11.2344   -4.7160   -2.8141 C   0  0  0  0  0  0
   10.2247   -4.4823   -1.8805 C   0  0  0  0  0  0
    9.3653   -5.8543   -1.2137 S   0  0  0  0  0  0
    7.9466   -5.5335   -1.2174 O   0  0  0  0  0  0
    9.8382   -7.0646   -1.8681 O   0  0  0  0  0  0
    9.9077   -5.9294    0.4772 C   0  0  0  0  0  0
   11.4140   -6.1261    0.5349 C   0  0  0  0  0  0
    9.1707   -7.0360    1.2141 C   0  0  0  0  0  0
   11.4533   -1.7221    0.5534 Cl  0  0  0  0  0  0
    4.1844   -2.0464   -2.0811 H   0  0  0  0  0  0
    2.4816   -1.4761   -2.1232 H   0  0  0  0  0  0
    2.8614   -3.1267   -1.5249 H   0  0  0  0  0  0
    5.4602   -1.1537   -0.4306 H   0  0  0  0  0  0
    1.5704   -0.9338    2.6471 H   0  0  0  0  0  0
    0.8762   -1.8275   -0.8535 H   0  0  0  0  0  0
   -0.1770   -1.1580    1.9442 H   0  0  0  0  0  0
   -0.1491   -0.0809    0.5069 H   0  0  0  0  0  0
   -2.4021   -1.0833    0.9296 H   0  0  0  0  0  0
   -1.7246   -1.5483   -0.6677 H   0  0  0  0  0  0
   -1.6867   -3.1910    1.8564 H   0  0  0  0  0  0
   -0.8783   -4.9435    0.4247 H   0  0  0  0  0  0
   -0.8256   -3.8050   -0.9637 H   0  0  0  0  0  0
    1.3991   -4.0568   -0.0122 H   0  0  0  0  0  0
    0.7859   -3.6303    1.6215 H   0  0  0  0  0  0
    3.1985   -1.8963    4.2910 H   0  0  0  0  0  0
    4.4712   -1.8003    6.4429 H   0  0  0  0  0  0
    5.0281   -0.1465    6.0169 H   0  0  0  0  0  0
    5.5297   -1.5495    5.0134 H   0  0  0  0  0  0
    2.0598   -1.0390    6.3471 H   0  0  0  0  0  0
    1.4429   -0.2591    4.8511 H   0  0  0  0  0  0
    2.5843    0.6250    5.9199 H   0  0  0  0  0  0
    5.8812    0.6463    2.6903 H   0  0  0  0  0  0
   10.3514    0.1876    2.3034 H   0  0  0  0  0  0
    8.1279    0.9040    2.9466 H   0  0  0  0  0  0
   10.3885   -1.0821   -1.7607 H   0  0  0  0  0  0
   12.1739   -1.5035   -3.4138 H   0  0  0  0  0  0
   12.7209   -3.8261   -4.0939 H   0  0  0  0  0  0
   11.4825   -5.7289   -3.1204 H   0  0  0  0  0  0
    9.7455   -5.0505    1.1184 H   0  0  0  0  0  0
   11.7379   -6.1710    1.5852 H   0  0  0  0  0  0
   11.9132   -5.2841    0.0330 H   0  0  0  0  0  0
   11.6808   -7.0653    0.0284 H   0  0  0  0  0  0
    9.5142   -7.0731    2.2584 H   0  0  0  0  0  0
    9.3751   -8.0006    0.7264 H   0  0  0  0  0  0
    8.0894   -6.8351    1.1907 H   0  0  0  0  0  0
    8.1527   -3.7133   -0.6541 H   0  0  0  0  0  0
   -2.7548   -3.4210    0.4306 H   0  0  0  0  0  0
  1  2  1  0  0  0
  1 39  1  0  0  0
  1 40  1  0  0  0
  1 41  1  0  0  0
  2  7  2  0  0  0
  2  3  1  0  0  0
  3  4  2  0  0  0
  3 42  1  0  0  0
  4  5  1  0  0  0
  4 18  1  0  0  0
  5  6  2  0  0  0
  5 14  1  0  0  0
  6  7  1  0  0  0
  6 43  1  0  0  0
  7  8  1  0  0  0
  8 13  1  0  0  0
  8  9  1  0  0  0
  8 44  1  0  0  0
  9 10  1  0  0  0
  9 45  1  0  0  0
  9 46  1  0  0  0
 10 11  1  0  0  0
 10 47  1  0  0  0
 10 48  1  0  0  0
 11 12  1  0  0  0
 11 49  1  0  0  0
 11 76  1  0  0  0
 12 13  1  0  0  0
 12 50  1  0  0  0
 12 51  1  0  0  0
 13 52  1  0  0  0
 13 53  1  0  0  0
 14 15  1  0  0  0
 15 16  1  0  0  0
 15 17  1  0  0  0
 15 54  1  0  0  0
 16 55  1  0  0  0
 16 56  1  0  0  0
 16 57  1  0  0  0
 17 58  1  0  0  0
 17 59  1  0  0  0
 17 60  1  0  0  0
 18 19  1  0  0  0
 18 61  1  0  0  0
 19 24  2  0  0  0
 19 20  1  0  0  0
 20 63  1  0  0  0
 20 21  1  0  0  0
 21 22  2  0  0  0
 21 62  1  0  0  0
 22 38  1  0  0  0
 22 23  1  0  0  0
 23 25  2  0  0  0
 23 24  1  0  0  0
 25 26  1  0  0  0
 25 75  1  0  0  0
 26 31  2  0  0  0
 26 27  1  0  0  0
 27 28  2  0  0  0
 27 64  1  0  0  0
 28 29  1  0  0  0
 28 65  1  0  0  0
 29 30  2  0  0  0
 29 66  1  0  0  0
 30 31  1  0  0  0
 30 67  1  0  0  0
 31 32  1  0  0  0
 32 33  2  0  0  0
 32 34  2  0  0  0
 32 35  1  0  0  0
 35 36  1  0  0  0
 35 37  1  0  0  0
 35 68  1  0  0  0
 36 69  1  0  0  0
 36 70  1  0  0  0
 36 71  1  0  0  0
 37 72  1  0  0  0
 37 73  1  0  0  0
 37 74  1  0  0  0
M  CHG  2  11   1  25   1
M  END
> <s_m_source_file>
/Users/andrea/Development/mcce-charges/epik_inhibitors/output/Ceritinib/Ceritinib-input.mol2

> <i_m_source_file_index>
1

> <r_epik_Ionization_Penalty>
  0.8643

> <r_epik_Ionization_Penalty_Charging>
  0.0019

> <r_epik_Ionization_Penalty_Neutral>
  0.8624

> <r_epik_State_Penalty>
  5.5309

> <i_epik_Tot_Q>
2

> <s_epik_Chemistry_Notes>
This compound has an imine and may undergo hydrolysis.

$$$$
5-chloro-~{N}2-[2-isopropoxy-5-methyl-4-(4-piperidyl)phenyl]-~{N}4-(2-isopropylsulfonylphenyl)pyrimidine-2,4-diamine
                    3D
 Structure written by MMmdl.
 76 79  0  0  1  0            999 V2000
    3.2107   -2.0875   -1.5667 C   0  0  0  0  0  0
    3.3563   -1.5514   -0.1804 C   0  0  0  0  0  0
    4.6080   -1.1075    0.2462 C   0  0  0  0  0  0
    4.7664   -0.6027    1.5368 C   0  0  0  0  0  0
    3.6731   -0.5417    2.4009 C   0  0  0  0  0  0
    2.4214   -0.9856    1.9743 C   0  0  0  0  0  0
    2.2630   -1.4904    0.6837 C   0  0  0  0  0  0
    0.8893   -1.9681    0.2415 C   0  0  0  0  0  0
   -0.2434   -1.1266    0.8508 C   0  0  0  0  0  0
   -1.6120   -1.6596    0.4259 C   0  0  0  0  0  0
   -1.7677   -3.0729    0.7712 N   0  3  0  0  0  0
   -0.7400   -3.8968    0.1340 C   0  0  0  0  0  0
    0.6653   -3.4577    0.5463 C   0  0  0  0  0  0
    3.8072   -0.0518    3.6657 O   0  0  0  0  0  0
    3.4867   -0.9342    4.7390 C   0  0  0  0  0  0
    4.7154   -1.1215    5.6150 C   0  0  0  0  0  0
    2.3135   -0.3642    5.5206 C   0  0  0  0  0  0
    6.0390   -0.1569    1.9555 N   0  0  0  0  0  0
    7.3461   -0.5454    1.6075 C   0  0  0  0  0  0
    8.3513    0.1108    2.2179 N   0  3  0  0  0  0
    9.5902   -0.2866    1.8610 C   0  0  0  0  0  0
    9.8400   -1.2863    0.9431 C   0  0  0  0  0  0
    8.7246   -1.8805    0.3891 C   0  0  0  0  0  0
    7.4582   -1.5337    0.6996 N   0  0  0  0  0  0
    8.9040   -2.9155   -0.5613 N   0  0  0  0  0  0
    8.1313   -4.0392   -0.8960 C   0  0  0  0  0  0
    7.3477   -4.6374    0.0909 C   0  0  0  0  0  0
    6.5726   -5.7555   -0.2166 C   0  0  0  0  0  0
    6.5810   -6.2755   -1.5109 C   0  0  0  0  0  0
    7.3646   -5.6773   -2.4977 C   0  0  0  0  0  0
    8.1398   -4.5592   -2.1903 C   0  0  0  0  0  0
    9.1117   -3.8390   -3.4562 S   0  0  0  0  0  0
   10.4262   -3.5581   -2.9006 O   0  0  0  0  0  0
    8.9890   -4.6501   -4.6578 O   0  0  0  0  0  0
    8.3127   -2.2870   -3.7905 C   0  0  0  0  0  0
    6.8813   -2.5228   -4.2446 C   0  0  0  0  0  0
    9.1052   -1.5028   -4.8239 C   0  0  0  0  0  0
   11.4533   -1.7221    0.5534 Cl  0  0  0  0  0  0
    4.1834   -2.0487   -2.0788 H   0  0  0  0  0  0
    2.4803   -1.4791   -2.1203 H   0  0  0  0  0  0
    2.8611   -3.1295   -1.5220 H   0  0  0  0  0  0
    5.4596   -1.1554   -0.4290 H   0  0  0  0  0  0
    1.5710   -0.9367    2.6504 H   0  0  0  0  0  0
    0.8756   -1.8310   -0.8498 H   0  0  0  0  0  0
   -0.1766   -1.1616    1.9482 H   0  0  0  0  0  0
   -0.1498   -0.0847    0.5108 H   0  0  0  0  0  0
   -2.4022   -1.0878    0.9345 H   0  0  0  0  0  0
   -1.7252   -1.5527   -0.6630 H   0  0  0  0  0  0
   -1.6856   -3.1952    1.8613 H   0  0  0  0  0  0
   -0.8771   -4.9475    0.4294 H   0  0  0  0  0  0
   -0.8254   -3.8091   -0.9592 H   0  0  0  0  0  0
    1.3997   -4.0600   -0.0086 H   0  0  0  0  0  0
    0.7871   -3.6336    1.6253 H   0  0  0  0  0  0
    3.2001   -1.8984    4.2937 H   0  0  0  0  0  0
    4.4737   -1.8017    6.4450 H   0  0  0  0  0  0
    5.0298   -0.1477    6.0186 H   0  0  0  0  0  0
    5.5315   -1.5506    5.0151 H   0  0  0  0  0  0
    2.0620   -1.0413    6.3502 H   0  0  0  0  0  0
    1.4442   -0.2618    4.8544 H   0  0  0  0  0  0
    2.5857    0.6229    5.9226 H   0  0  0  0  0  0
    6.1221    0.6503    2.6981 H   0  0  0  0  0  0
   10.3954    0.2467    2.3569 H   0  0  0  0  0  0
    9.7944   -2.9209   -1.2072 H   0  0  0  0  0  0
    7.3325   -4.2421    1.1036 H   0  0  0  0  0  0
    5.9636   -6.2220    0.5524 H   0  0  0  0  0  0
    5.9791   -7.1473   -1.7498 H   0  0  0  0  0  0
    7.3637   -6.0921   -3.5023 H   0  0  0  0  0  0
    8.1981   -1.5688   -2.9652 H   0  0  0  0  0  0
    6.3973   -1.5562   -4.4484 H   0  0  0  0  0  0
    6.3280   -3.0504   -3.4538 H   0  0  0  0  0  0
    6.8828   -3.1324   -5.1603 H   0  0  0  0  0  0
    8.6018   -0.5452   -5.0226 H   0  0  0  0  0  0
    9.1686   -2.0840   -5.7557 H   0  0  0  0  0  0
   10.1186   -1.3118   -4.4411 H   0  0  0  0  0  0
   -2.7542   -3.4258    0.4360 H   0  0  0  0  0  0
    8.1279    0.9044    2.9461 H   0  0  0  0  0  0
  1  2  1  0  0  0
  1 39  1  0  0  0
  1 40  1  0  0  0
  1 41  1  0  0  0
  2  7  2  0  0  0
  2  3  1  0  0  0
  3  4  2  0  0  0
  3 42  1  0  0  0
  4  5  1  0  0  0
  4 18  1  0  0  0
  5  6  2  0  0  0
  5 14  1  0  0  0
  6  7  1  0  0  0
  6 43  1  0  0  0
  7  8  1  0  0  0
  8 13  1  0  0  0
  8  9  1  0  0  0
  8 44  1  0  0  0
  9 10  1  0  0  0
  9 45  1  0  0  0
  9 46  1  0  0  0
 10 11  1  0  0  0
 10 47  1  0  0  0
 10 48  1  0  0  0
 11 12  1  0  0  0
 11 49  1  0  0  0
 11 75  1  0  0  0
 12 13  1  0  0  0
 12 50  1  0  0  0
 12 51  1  0  0  0
 13 52  1  0  0  0
 13 53  1  0  0  0
 14 15  1  0  0  0
 15 16  1  0  0  0
 15 17  1  0  0  0
 15 54  1  0  0  0
 16 55  1  0  0  0
 16 56  1  0  0  0
 16 57  1  0  0  0
 17 58  1  0  0  0
 17 59  1  0  0  0
 17 60  1  0  0  0
 18 19  1  0  0  0
 18 61  1  0  0  0
 19 24  2  0  0  0
 19 20  1  0  0  0
 20 21  2  0  0  0
 20 76  1  0  0  0
 21 22  1  0  0  0
 21 62  1  0  0  0
 22 23  2  0  0  0
 22 38  1  0  0  0
 23 24  1  0  0  0
 23 25  1  0  0  0
 25 26  1  0  0  0
 25 63  1  0  0  0
 26 31  2  0  0  0
 26 27  1  0  0  0
 27 28  2  0  0  0
 27 64  1  0  0  0
 28 29  1  0  0  0
 28 65  1  0  0  0
 29 30  2  0  0  0
 29 66  1  0  0  0
 30 31  1  0  0  0
 30 67  1  0  0  0
 31 32  1  0  0  0
 32 33  2  0  0  0
 32 34  2  0  0  0
 32 35  1  0  0  0
 35 36  1  0  0  0
 35 37  1  0  0  0
 35 68  1  0  0  0
 36 69  1  0  0  0
 36 70  1  0  0  0
 36 71  1  0  0  0
 37 72  1  0  0  0
 37 73  1  0  0  0
 37 74  1  0  0  0
M  CHG  2  11   1  20   1
M  END
> <s_m_source_file>
/Users/andrea/Development/mcce-charges/epik_inhibitors/output/Ceritinib/Ceritinib-input.mol2

> <i_m_source_file_index>
1

> <r_epik_Ionization_Penalty>
  5.1061

> <r_epik_Ionization_Penalty_Charging>
  5.0981

> <r_epik_Ionization_Penalty_Neutral>
  0.0081

> <r_epik_State_Penalty>
  6.0207

> <i_epik_Tot_Q>
2

$$$$
5-chloro-~{N}2-[2-isopropoxy-5-methyl-4-(4-piperidyl)phenyl]-~{N}4-(2-isopropylsulfonylphenyl)pyrimidine-2,4-diamine
                    3D
 Structure written by MMmdl.
 74 77  0  0  1  0            999 V2000
    3.2107   -2.0875   -1.5667 C   0  0  0  0  0  0
    3.3563   -1.5514   -0.1804 C   0  0  0  0  0  0
    4.6080   -1.1075    0.2462 C   0  0  0  0  0  0
    4.7664   -0.6027    1.5368 C   0  0  0  0  0  0
    3.6731   -0.5417    2.4009 C   0  0  0  0  0  0
    2.4214   -0.9856    1.9743 C   0  0  0  0  0  0
    2.2630   -1.4904    0.6837 C   0  0  0  0  0  0
    0.8893   -1.9681    0.2415 C   0  0  0  0  0  0
   -0.2434   -1.1266    0.8508 C   0  0  0  0  0  0
   -1.6120   -1.6596    0.4259 C   0  0  0  0  0  0
   -1.7677   -3.0729    0.7712 N   0  3  0  0  0  0
   -0.7400   -3.8968    0.1340 C   0  0  0  0  0  0
    0.6653   -3.4577    0.5463 C   0  0  0  0  0  0
    3.8072   -0.0518    3.6657 O   0  0  0  0  0  0
    3.4867   -0.9342    4.7390 C   0  0  0  0  0  0
    4.7154   -1.1215    5.6150 C   0  0  0  0  0  0
    2.3135   -0.3642    5.5206 C   0  0  0  0  0  0
    6.0390   -0.1569    1.9555 N   0  5  0  0  0  0
    7.3461   -0.5454    1.6075 C   0  0  0  0  0  0
    8.3513    0.1108    2.2179 N   0  0  0  0  0  0
    9.5902   -0.2866    1.8610 C   0  0  0  0  0  0
    9.8400   -1.2863    0.9431 C   0  0  0  0  0  0
    8.7246   -1.8805    0.3891 C   0  0  0  0  0  0
    7.4582   -1.5337    0.6996 N   0  0  0  0  0  0
    8.9040   -2.9155   -0.5613 N   0  0  0  0  0  0
    8.1313   -4.0392   -0.8960 C   0  0  0  0  0  0
    7.3477   -4.6374    0.0909 C   0  0  0  0  0  0
    6.5726   -5.7555   -0.2166 C   0  0  0  0  0  0
    6.5810   -6.2755   -1.5109 C   0  0  0  0  0  0
    7.3646   -5.6773   -2.4977 C   0  0  0  0  0  0
    8.1398   -4.5592   -2.1903 C   0  0  0  0  0  0
    9.1117   -3.8390   -3.4562 S   0  0  0  0  0  0
   10.4262   -3.5581   -2.9006 O   0  0  0  0  0  0
    8.9890   -4.6501   -4.6578 O   0  0  0  0  0  0
    8.3127   -2.2870   -3.7905 C   0  0  0  0  0  0
    6.8813   -2.5228   -4.2446 C   0  0  0  0  0  0
    9.1052   -1.5028   -4.8239 C   0  0  0  0  0  0
   11.4533   -1.7221    0.5534 Cl  0  0  0  0  0  0
    4.1834   -2.0487   -2.0788 H   0  0  0  0  0  0
    2.4803   -1.4791   -2.1203 H   0  0  0  0  0  0
    2.8611   -3.1295   -1.5220 H   0  0  0  0  0  0
    5.4596   -1.1554   -0.4290 H   0  0  0  0  0  0
    1.5710   -0.9367    2.6504 H   0  0  0  0  0  0
    0.8756   -1.8310   -0.8498 H   0  0  0  0  0  0
   -0.1766   -1.1616    1.9482 H   0  0  0  0  0  0
   -0.1498   -0.0847    0.5108 H   0  0  0  0  0  0
   -2.4022   -1.0878    0.9345 H   0  0  0  0  0  0
   -1.7252   -1.5527   -0.6630 H   0  0  0  0  0  0
   -1.6856   -3.1952    1.8613 H   0  0  0  0  0  0
   -0.8771   -4.9475    0.4294 H   0  0  0  0  0  0
   -0.8254   -3.8091   -0.9592 H   0  0  0  0  0  0
    1.3997   -4.0600   -0.0086 H   0  0  0  0  0  0
    0.7871   -3.6336    1.6253 H   0  0  0  0  0  0
    3.2001   -1.8984    4.2937 H   0  0  0  0  0  0
    4.4737   -1.8017    6.4450 H   0  0  0  0  0  0
    5.0298   -0.1477    6.0186 H   0  0  0  0  0  0
    5.5315   -1.5506    5.0151 H   0  0  0  0  0  0
    2.0620   -1.0413    6.3502 H   0  0  0  0  0  0
    1.4442   -0.2618    4.8544 H   0  0  0  0  0  0
    2.5857    0.6229    5.9226 H   0  0  0  0  0  0
   10.3954    0.2467    2.3569 H   0  0  0  0  0  0
    9.7944   -2.9209   -1.2072 H   0  0  0  0  0  0
    7.3325   -4.2421    1.1036 H   0  0  0  0  0  0
    5.9636   -6.2220    0.5524 H   0  0  0  0  0  0
    5.9791   -7.1473   -1.7498 H   0  0  0  0  0  0
    7.3637   -6.0921   -3.5023 H   0  0  0  0  0  0
    8.1981   -1.5688   -2.9652 H   0  0  0  0  0  0
    6.3973   -1.5562   -4.4484 H   0  0  0  0  0  0
    6.3280   -3.0504   -3.4538 H   0  0  0  0  0  0
    6.8828   -3.1324   -5.1603 H   0  0  0  0  0  0
    8.6018   -0.5452   -5.0226 H   0  0  0  0  0  0
    9.1686   -2.0840   -5.7557 H   0  0  0  0  0  0
   10.1186   -1.3118   -4.4411 H   0  0  0  0  0  0
   -2.7542   -3.4258    0.4360 H   0  0  0  0  0  0
  1  2  1  0  0  0
  1 39  1  0  0  0
  1 40  1  0  0  0
  1 41  1  0  0  0
  2  7  2  0  0  0
  2  3  1  0  0  0
  3  4  2  0  0  0
  3 42  1  0  0  0
  4  5  1  0  0  0
  4 18  1  0  0  0
  5  6  2  0  0  0
  5 14  1  0  0  0
  6  7  1  0  0  0
  6 43  1  0  0  0
  7  8  1  0  0  0
  8 13  1  0  0  0
  8  9  1  0  0  0
  8 44  1  0  0  0
  9 10  1  0  0  0
  9 45  1  0  0  0
  9 46  1  0  0  0
 10 11  1  0  0  0
 10 47  1  0  0  0
 10 48  1  0  0  0
 11 12  1  0  0  0
 11 49  1  0  0  0
 11 74  1  0  0  0
 12 13  1  0  0  0
 12 50  1  0  0  0
 12 51  1  0  0  0
 13 52  1  0  0  0
 13 53  1  0  0  0
 14 15  1  0  0  0
 15 16  1  0  0  0
 15 17  1  0  0  0
 15 54  1  0  0  0
 16 55  1  0  0  0
 16 56  1  0  0  0
 16 57  1  0  0  0
 17 58  1  0  0  0
 17 59  1  0  0  0
 17 60  1  0  0  0
 18 19  1  0  0  0
 19 24  2  0  0  0
 19 20  1  0  0  0
 20 21  2  0  0  0
 21 22  1  0  0  0
 21 61  1  0  0  0
 22 23  2  0  0  0
 22 38  1  0  0  0
 23 24  1  0  0  0
 23 25  1  0  0  0
 25 26  1  0  0  0
 25 62  1  0  0  0
 26 31  2  0  0  0
 26 27  1  0  0  0
 27 28  2  0  0  0
 27 63  1  0  0  0
 28 29  1  0  0  0
 28 64  1  0  0  0
 29 30  2  0  0  0
 29 65  1  0  0  0
 30 31  1  0  0  0
 30 66  1  0  0  0
 31 32  1  0  0  0
 32 33  2  0  0  0
 32 34  2  0  0  0
 32 35  1  0  0  0
 35 36  1  0  0  0
 35 37  1  0  0  0
 35 67  1  0  0  0
 36 68  1  0  0  0
 36 69  1  0  0  0
 36 70  1  0  0  0
 37 71  1  0  0  0
 37 72  1  0  0  0
 37 73  1  0  0  0
M  CHG  2  11   1  18  -1
M  END
> <s_m_source_file>
/Users/andrea/Development/mcce-charges/epik_inhibitors/output/Ceritinib/Ceritinib-input.mol2

> <i_m_source_file_index>
1

> <r_epik_Ionization_Penalty>
 10.0485

> <r_epik_Ionization_Penalty_Charging>
 10.0484

> <r_epik_Ionization_Penalty_Neutral>
  0.0002

> <r_epik_State_Penalty>
  6.5814

> <i_epik_Tot_Q>
0

$$$$
5-chloro-~{N}2-[2-isopropoxy-5-methyl-4-(4-piperidyl)phenyl]-~{N}4-(2-isopropylsulfonylphenyl)pyrimidine-2,4-diamine
                    3D
 Structure written by MMmdl.
 74 77  0  0  1  0            999 V2000
    3.2107   -2.0875   -1.5667 C   0  0  0  0  0  0
    3.3563   -1.5514   -0.1804 C   0  0  0  0  0  0
    4.6080   -1.1075    0.2462 C   0  0  0  0  0  0
    4.7664   -0.6027    1.5368 C   0  0  0  0  0  0
    3.6731   -0.5417    2.4009 C   0  0  0  0  0  0
    2.4214   -0.9856    1.9743 C   0  0  0  0  0  0
    2.2630   -1.4904    0.6837 C   0  0  0  0  0  0
    0.8893   -1.9681    0.2415 C   0  0  0  0  0  0
   -0.2434   -1.1266    0.8508 C   0  0  0  0  0  0
   -1.6120   -1.6596    0.4259 C   0  0  0  0  0  0
   -1.7677   -3.0729    0.7712 N   0  3  0  0  0  0
   -0.7400   -3.8968    0.1340 C   0  0  0  0  0  0
    0.6653   -3.4577    0.5463 C   0  0  0  0  0  0
    3.8072   -0.0518    3.6657 O   0  0  0  0  0  0
    3.4867   -0.9342    4.7390 C   0  0  0  0  0  0
    4.7154   -1.1215    5.6150 C   0  0  0  0  0  0
    2.3135   -0.3642    5.5206 C   0  0  0  0  0  0
    6.0390   -0.1569    1.9555 N   0  0  0  0  0  0
    7.3461   -0.5454    1.6075 C   0  0  0  0  0  0
    8.3513    0.1108    2.2179 N   0  0  0  0  0  0
    9.5902   -0.2866    1.8610 C   0  0  0  0  0  0
    9.8400   -1.2863    0.9431 C   0  0  0  0  0  0
    8.7246   -1.8805    0.3891 C   0  0  0  0  0  0
    7.4582   -1.5337    0.6996 N   0  0  0  0  0  0
    8.9040   -2.9155   -0.5613 N   0  5  0  0  0  0
    8.1313   -4.0392   -0.8960 C   0  0  0  0  0  0
    7.3477   -4.6374    0.0909 C   0  0  0  0  0  0
    6.5726   -5.7555   -0.2166 C   0  0  0  0  0  0
    6.5810   -6.2755   -1.5109 C   0  0  0  0  0  0
    7.3646   -5.6773   -2.4977 C   0  0  0  0  0  0
    8.1398   -4.5592   -2.1903 C   0  0  0  0  0  0
    9.1117   -3.8390   -3.4562 S   0  0  0  0  0  0
   10.4262   -3.5581   -2.9006 O   0  0  0  0  0  0
    8.9890   -4.6501   -4.6578 O   0  0  0  0  0  0
    8.3127   -2.2870   -3.7905 C   0  0  0  0  0  0
    6.8813   -2.5228   -4.2446 C   0  0  0  0  0  0
    9.1052   -1.5028   -4.8239 C   0  0  0  0  0  0
   11.4533   -1.7221    0.5534 Cl  0  0  0  0  0  0
    4.1834   -2.0487   -2.0788 H   0  0  0  0  0  0
    2.4803   -1.4791   -2.1203 H   0  0  0  0  0  0
    2.8611   -3.1295   -1.5220 H   0  0  0  0  0  0
    5.4596   -1.1554   -0.4290 H   0  0  0  0  0  0
    1.5710   -0.9367    2.6504 H   0  0  0  0  0  0
    0.8756   -1.8310   -0.8498 H   0  0  0  0  0  0
   -0.1766   -1.1616    1.9482 H   0  0  0  0  0  0
   -0.1498   -0.0847    0.5108 H   0  0  0  0  0  0
   -2.4022   -1.0878    0.9345 H   0  0  0  0  0  0
   -1.7252   -1.5527   -0.6630 H   0  0  0  0  0  0
   -1.6856   -3.1952    1.8613 H   0  0  0  0  0  0
   -0.8771   -4.9475    0.4294 H   0  0  0  0  0  0
   -0.8254   -3.8091   -0.9592 H   0  0  0  0  0  0
    1.3997   -4.0600   -0.0086 H   0  0  0  0  0  0
    0.7871   -3.6336    1.6253 H   0  0  0  0  0  0
    3.2001   -1.8984    4.2937 H   0  0  0  0  0  0
    4.4737   -1.8017    6.4450 H   0  0  0  0  0  0
    5.0298   -0.1477    6.0186 H   0  0  0  0  0  0
    5.5315   -1.5506    5.0151 H   0  0  0  0  0  0
    2.0620   -1.0413    6.3502 H   0  0  0  0  0  0
    1.4442   -0.2618    4.8544 H   0  0  0  0  0  0
    2.5857    0.6229    5.9226 H   0  0  0  0  0  0
    6.1221    0.6503    2.6981 H   0  0  0  0  0  0
   10.3954    0.2467    2.3569 H   0  0  0  0  0  0
    7.3325   -4.2421    1.1036 H   0  0  0  0  0  0
    5.9636   -6.2220    0.5524 H   0  0  0  0  0  0
    5.9791   -7.1473   -1.7498 H   0  0  0  0  0  0
    7.3637   -6.0921   -3.5023 H   0  0  0  0  0  0
    8.1981   -1.5688   -2.9652 H   0  0  0  0  0  0
    6.3973   -1.5562   -4.4484 H   0  0  0  0  0  0
    6.3280   -3.0504   -3.4538 H   0  0  0  0  0  0
    6.8828   -3.1324   -5.1603 H   0  0  0  0  0  0
    8.6018   -0.5452   -5.0226 H   0  0  0  0  0  0
    9.1686   -2.0840   -5.7557 H   0  0  0  0  0  0
   10.1186   -1.3118   -4.4411 H   0  0  0  0  0  0
   -2.7542   -3.4258    0.4360 H   0  0  0  0  0  0
  1  2  1  0  0  0
  1 39  1  0  0  0
  1 40  1  0  0  0
  1 41  1  0  0  0
  2  7  2  0  0  0
  2  3  1  0  0  0
  3  4  2  0  0  0
  3 42  1  0  0  0
  4  5  1  0  0  0
  4 18  1  0  0  0
  5  6  2  0  0  0
  5 14  1  0  0  0
  6  7  1  0  0  0
  6 43  1  0  0  0
  7  8  1  0  0  0
  8 13  1  0  0  0
  8  9  1  0  0  0
  8 44  1  0  0  0
  9 10  1  0  0  0
  9 45  1  0  0  0
  9 46  1  0  0  0
 10 11  1  0  0  0
 10 47  1  0  0  0
 10 48  1  0  0  0
 11 12  1  0  0  0
 11 49  1  0  0  0
 11 74  1  0  0  0
 12 13  1  0  0  0
 12 50  1  0  0  0
 12 51  1  0  0  0
 13 52  1  0  0  0
 13 53  1  0  0  0
 14 15  1  0  0  0
 15 16  1  0  0  0
 15 17  1  0  0  0
 15 54  1  0  0  0
 16 55  1  0  0  0
 16 56  1  0  0  0
 16 57  1  0  0  0
 17 58  1  0  0  0
 17 59  1  0  0  0
 17 60  1  0  0  0
 18 19  1  0  0  0
 18 61  1  0  0  0
 19 24  2  0  0  0
 19 20  1  0  0  0
 20 21  2  0  0  0
 21 22  1  0  0  0
 21 62  1  0  0  0
 22 23  2  0  0  0
 22 38  1  0  0  0
 23 24  1  0  0  0
 23 25  1  0  0  0
 25 26  1  0  0  0
 26 31  2  0  0  0
 26 27  1  0  0  0
 27 28  2  0  0  0
 27 63  1  0  0  0
 28 29  1  0  0  0
 28 64  1  0  0  0
 29 30  2  0  0  0
 29 65  1  0  0  0
 30 31  1  0  0  0
 30 66  1  0  0  0
 31 32  1  0  0  0
 32 33  2  0  0  0
 32 34  2  0  0  0
 32 35  1  0  0  0
 35 36  1  0  0  0
 35 37  1  0  0  0
 35 67  1  0  0  0
 36 68  1  0  0  0
 36 69  1  0  0  0
 36 70  1  0  0  0
 37 71  1  0  0  0
 37 72  1  0  0  0
 37 73  1  0  0  0
M  CHG  2  11   1  25  -1
M  END
> <s_m_source_file>
/Users/andrea/Development/mcce-charges/epik_inhibitors/output/Ceritinib/Ceritinib-input.mol2

> <i_m_source_file_index>
1

> <r_epik_Ionization_Penalty>
  6.7301

> <r_epik_Ionization_Penalty_Charging>
  6.7273

> <r_epik_Ionization_Penalty_Neutral>
  0.0028

> <r_epik_State_Penalty>
  7.0424

> <i_epik_Tot_Q>
0

$$$$
5-chloro-~{N}2-[2-isopropoxy-5-methyl-4-(4-piperidyl)phenyl]-~{N}4-(2-isopropylsulfonylphenyl)pyrimidine-2,4-diamine
                    3D
 Structure written by MMmdl.
 75 78  0  0  1  0            999 V2000
    3.2110   -2.0865   -1.5677 C   0  0  0  0  0  0
    3.3564   -1.5505   -0.1814 C   0  0  0  0  0  0
    4.6081   -1.1067    0.2454 C   0  0  0  0  0  0
    4.7664   -0.6020    1.5361 C   0  0  0  0  0  0
    3.6730   -0.5409    2.4000 C   0  0  0  0  0  0
    2.4213   -0.9846    1.9732 C   0  0  0  0  0  0
    2.2630   -1.4893    0.6826 C   0  0  0  0  0  0
    0.8893   -1.9668    0.2401 C   0  0  0  0  0  0
   -0.2434   -1.1252    0.8493 C   0  0  0  0  0  0
   -1.6120   -1.6580    0.4242 C   0  0  0  0  0  0
   -1.7679   -3.0713    0.7694 N   0  3  0  0  0  0
   -0.7402   -3.8953    0.1323 C   0  0  0  0  0  0
    0.6651   -3.4564    0.5448 C   0  0  0  0  0  0
    3.8070   -0.0511    3.6648 O   0  0  0  0  0  0
    3.4862   -0.9335    4.7381 C   0  0  0  0  0  0
    4.7147   -1.1210    5.6142 C   0  0  0  0  0  0
    2.3129   -0.3633    5.5195 C   0  0  0  0  0  0
    6.0390   -0.1564    1.9550 N   0  0  0  0  0  0
    7.3461   -0.5451    1.6072 C   0  0  0  0  0  0
    8.3513    0.1108    2.2179 N   0  0  0  0  0  0
    9.5902   -0.2866    1.8610 C   0  0  0  0  0  0
    9.8400   -1.2863    0.9431 C   0  0  0  0  0  0
    8.7246   -1.8803    0.3889 C   0  0  0  0  0  0
    7.4582   -1.5334    0.6992 N   0  0  0  0  0  0
    8.9040   -2.9151   -0.5617 N   0  0  0  0  0  0
    8.1312   -4.0386   -0.8969 C   0  0  0  0  0  0
    7.3472   -4.6369    0.0897 C   0  0  0  0  0  0
    6.5720   -5.7548   -0.2182 C   0  0  0  0  0  0
    6.5806   -6.2744   -1.5127 C   0  0  0  0  0  0
    7.3645   -5.6761   -2.4991 C   0  0  0  0  0  0
    8.1398   -4.5583   -2.1913 C   0  0  0  0  0  0
    9.1121   -3.8379   -3.4568 S   0  0  0  0  0  0
   10.4266   -3.5574   -2.9009 O   0  0  0  0  0  0
    8.9895   -4.6487   -4.6586 O   0  0  0  0  0  0
    8.3135   -2.2857   -3.7909 C   0  0  0  0  0  0
    6.8822   -2.5211   -4.2453 C   0  0  0  0  0  0
    9.1064   -1.5014   -4.8239 C   0  0  0  0  0  0
   11.4533   -1.7221    0.5534 Cl  0  0  0  0  0  0
    4.1838   -2.0478   -2.0797 H   0  0  0  0  0  0
    2.4808   -1.4780   -2.1214 H   0  0  0  0  0  0
    2.8612   -3.1284   -1.5231 H   0  0  0  0  0  0
    5.4598   -1.1547   -0.4297 H   0  0  0  0  0  0
    1.5708   -0.9356    2.6492 H   0  0  0  0  0  0
    0.8758   -1.8297   -0.8512 H   0  0  0  0  0  0
   -0.1767   -1.1603    1.9467 H   0  0  0  0  0  0
   -0.1495   -0.0833    0.5094 H   0  0  0  0  0  0
   -2.4022   -1.0861    0.9327 H   0  0  0  0  0  0
   -1.7250   -1.5511   -0.6648 H   0  0  0  0  0  0
   -1.6860   -3.1936    1.8595 H   0  0  0  0  0  0
   -0.8776   -4.9460    0.4277 H   0  0  0  0  0  0
   -0.8255   -3.8076   -0.9609 H   0  0  0  0  0  0
    1.3995   -4.0588   -0.0100 H   0  0  0  0  0  0
    0.7867   -3.6323    1.6238 H   0  0  0  0  0  0
    3.1996   -1.8976    4.2927 H   0  0  0  0  0  0
    4.4728   -1.8012    6.4442 H   0  0  0  0  0  0
    5.0292   -0.1473    6.0179 H   0  0  0  0  0  0
    5.5308   -1.5501    5.0144 H   0  0  0  0  0  0
    2.0612   -1.0405    6.3490 H   0  0  0  0  0  0
    1.4438   -0.2608    4.8532 H   0  0  0  0  0  0
    2.5852    0.6237    5.9216 H   0  0  0  0  0  0
    8.1279    0.9041    2.9464 H   0  0  0  0  0  0
   10.3514    0.1880    2.3030 H   0  0  0  0  0  0
    9.7945   -2.9205   -1.2074 H   0  0  0  0  0  0
    7.3319   -4.2418    1.1025 H   0  0  0  0  0  0
    5.9627   -6.2213    0.5505 H   0  0  0  0  0  0
    5.9785   -7.1461   -1.7519 H   0  0  0  0  0  0
    7.3637   -6.0907   -3.5038 H   0  0  0  0  0  0
    8.1989   -1.5677   -2.9655 H   0  0  0  0  0  0
    6.3984   -1.5544   -4.4490 H   0  0  0  0  0  0
    6.3286   -3.0488   -3.4548 H   0  0  0  0  0  0
    6.8838   -3.1304   -5.1612 H   0  0  0  0  0  0
    8.6031   -0.5436   -5.0225 H   0  0  0  0  0  0
    9.1699   -2.0824   -5.7558 H   0  0  0  0  0  0
   10.1197   -1.3107   -4.4409 H   0  0  0  0  0  0
   -2.7544   -3.4240    0.4340 H   0  0  0  0  0  0
  1  2  1  0  0  0
  1 39  1  0  0  0
  1 40  1  0  0  0
  1 41  1  0  0  0
  2  7  2  0  0  0
  2  3  1  0  0  0
  3  4  2  0  0  0
  3 42  1  0  0  0
  4  5  1  0  0  0
  4 18  1  0  0  0
  5  6  2  0  0  0
  5 14  1  0  0  0
  6  7  1  0  0  0
  6 43  1  0  0  0
  7  8  1  0  0  0
  8 13  1  0  0  0
  8  9  1  0  0  0
  8 44  1  0  0  0
  9 10  1  0  0  0
  9 45  1  0  0  0
  9 46  1  0  0  0
 10 11  1  0  0  0
 10 47  1  0  0  0
 10 48  1  0  0  0
 11 12  1  0  0  0
 11 49  1  0  0  0
 11 75  1  0  0  0
 12 13  1  0  0  0
 12 50  1  0  0  0
 12 51  1  0  0  0
 13 52  1  0  0  0
 13 53  1  0  0  0
 14 15  1  0  0  0
 15 16  1  0  0  0
 15 17  1  0  0  0
 15 54  1  0  0  0
 16 55  1  0  0  0
 16 56  1  0  0  0
 16 57  1  0  0  0
 17 58  1  0  0  0
 17 59  1  0  0  0
 17 60  1  0  0  0
 18 19  2  0  0  0
 19 24  1  0  0  0
 19 20  1  0  0  0
 20 61  1  0  0  0
 20 21  1  0  0  0
 21 22  2  0  0  0
 21 62  1  0  0  0
 22 38  1  0  0  0
 22 23  1  0  0  0
 23 25  1  0  0  0
 23 24  2  0  0  0
 25 26  1  0  0  0
 25 63  1  0  0  0
 26 31  2  0  0  0
 26 27  1  0  0  0
 27 28  2  0  0  0
 27 64  1  0  0  0
 28 29  1  0  0  0
 28 65  1  0  0  0
 29 30  2  0  0  0
 29 66  1  0  0  0
 30 31  1  0  0  0
 30 67  1  0  0  0
 31 32  1  0  0  0
 32 33  2  0  0  0
 32 34  2  0  0  0
 32 35  1  0  0  0
 35 36  1  0  0  0
 35 37  1  0  0  0
 35 68  1  0  0  0
 36 69  1  0  0  0
 36 70  1  0  0  0
 36 71  1  0  0  0
 37 72  1  0  0  0
 37 73  1  0  0  0
 37 74  1  0  0  0
M  CHG  1  11   1
M  END
> <s_m_source_file>
/Users/andrea/Development/mcce-charges/epik_inhibitors/output/Ceritinib/Ceritinib-input.mol2

> <i_m_source_file_index>
1

> <r_lp_tautomer_probability>
5.30999407234317e-07

> <r_epik_Ionization_Penalty>
  7.7853

> <r_epik_Ionization_Penalty_Charging>
  7.7849

> <r_epik_Ionization_Penalty_Neutral>
  0.0004

> <r_epik_State_Penalty>
  9.0417

> <i_epik_Tot_Q>
1

$$$$
5-chloro-~{N}2-[2-isopropoxy-5-methyl-4-(4-piperidyl)phenyl]-~{N}4-(2-isopropylsulfonylphenyl)pyrimidine-2,4-diamine
                    3D
 Structure written by MMmdl.
 75 78  0  0  1  0            999 V2000
    6.5953    2.4492    6.0822 C   0  0  0  0  0  0
    5.7893    2.1095    4.8716 C   0  0  0  0  0  0
    6.2736    1.1496    3.9829 C   0  0  0  0  0  0
    5.5369    0.8169    2.8461 C   0  0  0  0  0  0
    4.3159    1.4440    2.5981 C   0  0  0  0  0  0
    3.8316    2.4039    3.4868 C   0  0  0  0  0  0
    4.5683    2.7366    4.6235 C   0  0  0  0  0  0
    4.0201    3.7856    5.5774 C   0  0  0  0  0  0
    2.4871    3.7366    5.6775 C   0  0  0  0  0  0
    1.9630    4.8322    6.6063 C   0  0  0  0  0  0
    2.4164    6.1570    6.1819 N   0  3  0  0  0  0
    3.8770    6.2412    6.1569 C   0  0  0  0  0  0
    4.4817    5.2046    5.2095 C   0  0  0  0  0  0
    3.5811    1.1328    1.4931 O   0  0  0  0  0  0
    3.3084    2.1917    0.5778 C   0  0  0  0  0  0
    3.8934    1.8399   -0.7810 C   0  0  0  0  0  0
    1.8062    2.4171    0.5083 C   0  0  0  0  0  0
    6.0390   -0.1564    1.9550 N   0  0  0  0  0  0
    7.3461   -0.5451    1.6072 C   0  0  0  0  0  0
    8.3513    0.1108    2.2179 N   0  0  0  0  0  0
    9.5902   -0.2866    1.8610 C   0  0  0  0  0  0
    9.8400   -1.2863    0.9431 C   0  0  0  0  0  0
    8.7246   -1.8803    0.3889 C   0  0  0  0  0  0
    7.4582   -1.5334    0.6992 N   0  0  0  0  0  0
    8.9040   -2.9151   -0.5617 N   0  0  0  0  0  0
    8.1312   -4.0386   -0.8969 C   0  0  0  0  0  0
    7.3472   -4.6369    0.0897 C   0  0  0  0  0  0
    6.5720   -5.7548   -0.2182 C   0  0  0  0  0  0
    6.5806   -6.2744   -1.5127 C   0  0  0  0  0  0
    7.3645   -5.6761   -2.4991 C   0  0  0  0  0  0
    8.1398   -4.5583   -2.1913 C   0  0  0  0  0  0
    9.1121   -3.8379   -3.4568 S   0  0  0  0  0  0
   10.4266   -3.5574   -2.9009 O   0  0  0  0  0  0
    8.9895   -4.6487   -4.6586 O   0  0  0  0  0  0
    8.3135   -2.2857   -3.7909 C   0  0  0  0  0  0
    6.8822   -2.5211   -4.2453 C   0  0  0  0  0  0
    9.1064   -1.5014   -4.8239 C   0  0  0  0  0  0
   11.4533   -1.7221    0.5534 Cl  0  0  0  0  0  0
    7.5161    1.8475    6.0903 H   0  0  0  0  0  0
    6.0077    2.2325    6.9865 H   0  0  0  0  0  0
    6.8557    3.5177    6.0614 H   0  0  0  0  0  0
    7.2259    0.6612    4.1779 H   0  0  0  0  0  0
    2.8793    2.8910    3.2906 H   0  0  0  0  0  0
    4.4409    3.5273    6.5603 H   0  0  0  0  0  0
    2.0496    3.8820    4.6788 H   0  0  0  0  0  0
    2.1767    2.7591    6.0751 H   0  0  0  0  0  0
    0.8630    4.8224    6.6008 H   0  0  0  0  0  0
    2.3261    4.6509    7.6287 H   0  0  0  0  0  0
    2.0382    6.3675    5.1707 H   0  0  0  0  0  0
    4.1808    7.2423    5.8172 H   0  0  0  0  0  0
    4.2720    6.0614    7.1676 H   0  0  0  0  0  0
    5.5781    5.2626    5.2771 H   0  0  0  0  0  0
    4.1648    5.4386    4.1825 H   0  0  0  0  0  0
    3.7996    3.0949    0.9687 H   0  0  0  0  0  0
    3.6858    2.6538   -1.4913 H   0  0  0  0  0  0
    3.4366    0.9085   -1.1468 H   0  0  0  0  0  0
    4.9808    1.7031   -0.6877 H   0  0  0  0  0  0
    1.5902    3.2333   -0.1968 H   0  0  0  0  0  0
    1.4291    2.6851    1.5063 H   0  0  0  0  0  0
    1.3127    1.4958    0.1651 H   0  0  0  0  0  0
    8.1279    0.9041    2.9464 H   0  0  0  0  0  0
   10.3514    0.1880    2.3030 H   0  0  0  0  0  0
    9.7945   -2.9205   -1.2074 H   0  0  0  0  0  0
    7.3319   -4.2418    1.1025 H   0  0  0  0  0  0
    5.9627   -6.2213    0.5505 H   0  0  0  0  0  0
    5.9785   -7.1461   -1.7519 H   0  0  0  0  0  0
    7.3637   -6.0907   -3.5038 H   0  0  0  0  0  0
    8.1989   -1.5677   -2.9655 H   0  0  0  0  0  0
    6.3984   -1.5544   -4.4490 H   0  0  0  0  0  0
    6.3286   -3.0488   -3.4548 H   0  0  0  0  0  0
    6.8838   -3.1304   -5.1612 H   0  0  0  0  0  0
    8.6031   -0.5436   -5.0225 H   0  0  0  0  0  0
    9.1699   -2.0824   -5.7558 H   0  0  0  0  0  0
   10.1197   -1.3107   -4.4409 H   0  0  0  0  0  0
    2.0359    6.9162    6.8811 H   0  0  0  0  0  0
  1  2  1  0  0  0
  1 39  1  0  0  0
  1 40  1  0  0  0
  1 41  1  0  0  0
  2  7  2  0  0  0
  2  3  1  0  0  0
  3  4  2  0  0  0
  3 42  1  0  0  0
  4  5  1  0  0  0
  4 18  1  0  0  0
  5  6  2  0  0  0
  5 14  1  0  0  0
  6  7  1  0  0  0
  6 43  1  0  0  0
  7  8  1  0  0  0
  8 13  1  0  0  0
  8  9  1  0  0  0
  8 44  1  0  0  0
  9 10  1  0  0  0
  9 45  1  0  0  0
  9 46  1  0  0  0
 10 11  1  0  0  0
 10 47  1  0  0  0
 10 48  1  0  0  0
 11 12  1  0  0  0
 11 49  1  0  0  0
 11 75  1  0  0  0
 12 13  1  0  0  0
 12 50  1  0  0  0
 12 51  1  0  0  0
 13 52  1  0  0  0
 13 53  1  0  0  0
 14 15  1  0  0  0
 15 16  1  0  0  0
 15 17  1  0  0  0
 15 54  1  0  0  0
 16 55  1  0  0  0
 16 56  1  0  0  0
 16 57  1  0  0  0
 17 58  1  0  0  0
 17 59  1  0  0  0
 17 60  1  0  0  0
 18 19  2  0  0  0
 19 24  1  0  0  0
 19 20  1  0  0  0
 20 61  1  0  0  0
 20 21  1  0  0  0
 21 22  2  0  0  0
 21 62  1  0  0  0
 22 38  1  0  0  0
 22 23  1  0  0  0
 23 25  1  0  0  0
 23 24  2  0  0  0
 25 26  1  0  0  0
 25 63  1  0  0  0
 26 31  2  0  0  0
 26 27  1  0  0  0
 27 28  2  0  0  0
 27 64  1  0  0  0
 28 29  1  0  0  0
 28 65  1  0  0  0
 29 30  2  0  0  0
 29 66  1  0  0  0
 30 31  1  0  0  0
 30 67  1  0  0  0
 31 32  1  0  0  0
 32 33  2  0  0  0
 32 34  2  0  0  0
 32 35  1  0  0  0
 35 36  1  0  0  0
 35 37  1  0  0  0
 35 68  1  0  0  0
 36 69  1  0  0  0
 36 70  1  0  0  0
 36 71  1  0  0  0
 37 72  1  0  0  0
 37 73  1  0  0  0
 37 74  1  0  0  0
M  CHG  1  11   1
M  END
> <s_m_source_file>
/Users/andrea/Development/mcce-charges/epik_inhibitors/output/Ceritinib/Ceritinib-input.mol2

> <i_m_source_file_index>
1

> <r_lp_tautomer_probability>
5.30999407234317e-07

> <r_epik_Ionization_Penalty>
  7.7853

> <r_epik_Ionization_Penalty_Charging>
  7.7849

> <r_epik_Ionization_Penalty_Neutral>
  0.0004

> <r_epik_State_Penalty>
  9.0819

> <i_epik_Tot_Q>
1

$$$$
5-chloro-~{N}2-[2-isopropoxy-5-methyl-4-(4-piperidyl)phenyl]-~{N}4-(2-isopropylsulfonylphenyl)pyrimidine-2,4-diamine
                    3D
 Structure written by MMmdl.
 75 78  0  0  1  0            999 V2000
    3.2107   -2.0875   -1.5667 C   0  0  0  0  0  0
    3.3563   -1.5514   -0.1804 C   0  0  0  0  0  0
    4.6080   -1.1075    0.2462 C   0  0  0  0  0  0
    4.7664   -0.6027    1.5368 C   0  0  0  0  0  0
    3.6731   -0.5417    2.4009 C   0  0  0  0  0  0
    2.4214   -0.9856    1.9743 C   0  0  0  0  0  0
    2.2630   -1.4904    0.6837 C   0  0  0  0  0  0
    0.8893   -1.9681    0.2415 C   0  0  0  0  0  0
   -0.2434   -1.1266    0.8508 C   0  0  0  0  0  0
   -1.6120   -1.6596    0.4259 C   0  0  0  0  0  0
   -1.7677   -3.0729    0.7712 N   0  0  0  0  0  0
   -0.7400   -3.8968    0.1340 C   0  0  0  0  0  0
    0.6653   -3.4577    0.5463 C   0  0  0  0  0  0
    3.8072   -0.0518    3.6657 O   0  0  0  0  0  0
    3.4867   -0.9342    4.7390 C   0  0  0  0  0  0
    4.7154   -1.1215    5.6150 C   0  0  0  0  0  0
    2.3135   -0.3642    5.5206 C   0  0  0  0  0  0
    6.0390   -0.1569    1.9555 N   0  0  0  0  0  0
    7.3461   -0.5454    1.6075 C   0  0  0  0  0  0
    8.3513    0.1108    2.2179 N   0  3  0  0  0  0
    9.5902   -0.2866    1.8610 C   0  0  0  0  0  0
    9.8400   -1.2863    0.9431 C   0  0  0  0  0  0
    8.7246   -1.8805    0.3891 C   0  0  0  0  0  0
    7.4582   -1.5337    0.6996 N   0  0  0  0  0  0
    8.9040   -2.9155   -0.5613 N   0  0  0  0  0  0
    8.1313   -4.0392   -0.8960 C   0  0  0  0  0  0
    7.3477   -4.6374    0.0909 C   0  0  0  0  0  0
    6.5726   -5.7555   -0.2166 C   0  0  0  0  0  0
    6.5810   -6.2755   -1.5109 C   0  0  0  0  0  0
    7.3646   -5.6773   -2.4977 C   0  0  0  0  0  0
    8.1398   -4.5592   -2.1903 C   0  0  0  0  0  0
    9.1117   -3.8390   -3.4562 S   0  0  0  0  0  0
   10.4262   -3.5581   -2.9006 O   0  0  0  0  0  0
    8.9890   -4.6501   -4.6578 O   0  0  0  0  0  0
    8.3127   -2.2870   -3.7905 C   0  0  0  0  0  0
    6.8813   -2.5228   -4.2446 C   0  0  0  0  0  0
    9.1052   -1.5028   -4.8239 C   0  0  0  0  0  0
   11.4533   -1.7221    0.5534 Cl  0  0  0  0  0  0
    4.1834   -2.0487   -2.0788 H   0  0  0  0  0  0
    2.4803   -1.4791   -2.1203 H   0  0  0  0  0  0
    2.8611   -3.1295   -1.5220 H   0  0  0  0  0  0
    5.4596   -1.1554   -0.4290 H   0  0  0  0  0  0
    1.5710   -0.9367    2.6504 H   0  0  0  0  0  0
    0.8756   -1.8310   -0.8498 H   0  0  0  0  0  0
   -0.1766   -1.1616    1.9482 H   0  0  0  0  0  0
   -0.1498   -0.0847    0.5108 H   0  0  0  0  0  0
   -2.4022   -1.0878    0.9345 H   0  0  0  0  0  0
   -1.7252   -1.5527   -0.6630 H   0  0  0  0  0  0
   -1.6856   -3.1952    1.8613 H   0  0  0  0  0  0
   -0.8771   -4.9475    0.4294 H   0  0  0  0  0  0
   -0.8254   -3.8091   -0.9592 H   0  0  0  0  0  0
    1.3997   -4.0600   -0.0086 H   0  0  0  0  0  0
    0.7871   -3.6336    1.6253 H   0  0  0  0  0  0
    3.2001   -1.8984    4.2937 H   0  0  0  0  0  0
    4.4737   -1.8017    6.4450 H   0  0  0  0  0  0
    5.0298   -0.1477    6.0186 H   0  0  0  0  0  0
    5.5315   -1.5506    5.0151 H   0  0  0  0  0  0
    2.0620   -1.0413    6.3502 H   0  0  0  0  0  0
    1.4442   -0.2618    4.8544 H   0  0  0  0  0  0
    2.5857    0.6229    5.9226 H   0  0  0  0  0  0
    6.1221    0.6503    2.6981 H   0  0  0  0  0  0
   10.3954    0.2467    2.3569 H   0  0  0  0  0  0
    9.7944   -2.9209   -1.2072 H   0  0  0  0  0  0
    7.3325   -4.2421    1.1036 H   0  0  0  0  0  0
    5.9636   -6.2220    0.5524 H   0  0  0  0  0  0
    5.9791   -7.1473   -1.7498 H   0  0  0  0  0  0
    7.3637   -6.0921   -3.5023 H   0  0  0  0  0  0
    8.1981   -1.5688   -2.9652 H   0  0  0  0  0  0
    6.3973   -1.5562   -4.4484 H   0  0  0  0  0  0
    6.3280   -3.0504   -3.4538 H   0  0  0  0  0  0
    6.8828   -3.1324   -5.1603 H   0  0  0  0  0  0
    8.6018   -0.5452   -5.0226 H   0  0  0  0  0  0
    9.1686   -2.0840   -5.7557 H   0  0  0  0  0  0
   10.1186   -1.3118   -4.4411 H   0  0  0  0  0  0
    8.1279    0.9044    2.9461 H   0  0  0  0  0  0
  1  2  1  0  0  0
  1 39  1  0  0  0
  1 40  1  0  0  0
  1 41  1  0  0  0
  2  7  2  0  0  0
  2  3  1  0  0  0
  3  4  2  0  0  0
  3 42  1  0  0  0
  4  5  1  0  0  0
  4 18  1  0  0  0
  5  6  2  0  0  0
  5 14  1  0  0  0
  6  7  1  0  0  0
  6 43  1  0  0  0
  7  8  1  0  0  0
  8 13  1  0  0  0
  8  9  1  0  0  0
  8 44  1  0  0  0
  9 10  1  0  0  0
  9 45  1  0  0  0
  9 46  1  0  0  0
 10 11  1  0  0  0
 10 47  1  0  0  0
 10 48  1  0  0  0
 11 12  1  0  0  0
 11 49  1  0  0  0
 12 13  1  0  0  0
 12 50  1  0  0  0
 12 51  1  0  0  0
 13 52  1  0  0  0
 13 53  1  0  0  0
 14 15  1  0  0  0
 15 16  1  0  0  0
 15 17  1  0  0  0
 15 54  1  0  0  0
 16 55  1  0  0  0
 16 56  1  0  0  0
 16 57  1  0  0  0
 17 58  1  0  0  0
 17 59  1  0  0  0
 17 60  1  0  0  0
 18 19  1  0  0  0
 18 61  1  0  0  0
 19 24  2  0  0  0
 19 20  1  0  0  0
 20 21  2  0  0  0
 20 75  1  0  0  0
 21 22  1  0  0  0
 21 62  1  0  0  0
 22 23  2  0  0  0
 22 38  1  0  0  0
 23 24  1  0  0  0
 23 25  1  0  0  0
 25 26  1  0  0  0
 25 63  1  0  0  0
 26 31  2  0  0  0
 26 27  1  0  0  0
 27 28  2  0  0  0
 27 64  1  0  0  0
 28 29  1  0  0  0
 28 65  1  0  0  0
 29 30  2  0  0  0
 29 66  1  0  0  0
 30 31  1  0  0  0
 30 67  1  0  0  0
 31 32  1  0  0  0
 32 33  2  0  0  0
 32 34  2  0  0  0
 32 35  1  0  0  0
 35 36  1  0  0  0
 35 37  1  0  0  0
 35 68  1  0  0  0
 36 69  1  0  0  0
 36 70  1  0  0  0
 36 71  1  0  0  0
 37 72  1  0  0  0
 37 73  1  0  0  0
 37 74  1  0  0  0
M  CHG  1  20   1
M  END
> <s_m_source_file>
/Users/andrea/Development/mcce-charges/epik_inhibitors/output/Ceritinib/Ceritinib-input.mol2

> <i_m_source_file_index>
1

> <r_epik_Ionization_Penalty>
  8.8229

> <r_epik_Ionization_Penalty_Charging>
  5.0969

> <r_epik_Ionization_Penalty_Neutral>
  3.7260

> <r_epik_State_Penalty>
  9.6709

> <i_epik_Tot_Q>
1

$$$$
5-chloro-~{N}2-[2-isopropoxy-5-methyl-4-(4-piperidyl)phenyl]-~{N}4-(2-isopropylsulfonylphenyl)pyrimidine-2,4-diamine
                    3D
 Structure written by MMmdl.
 74 77  0  0  1  0            999 V2000
    3.2115   -2.0848   -1.5694 C   0  0  0  0  0  0
    3.3567   -1.5489   -0.1830 C   0  0  0  0  0  0
    4.6084   -1.1055    0.2442 C   0  0  0  0  0  0
    4.7664   -0.6009    1.5349 C   0  0  0  0  0  0
    3.6728   -0.5396    2.3985 C   0  0  0  0  0  0
    2.4211   -0.9830    1.9713 C   0  0  0  0  0  0
    2.2630   -1.4876    0.6806 C   0  0  0  0  0  0
    0.8893   -1.9647    0.2378 C   0  0  0  0  0  0
   -0.2433   -1.1228    0.8467 C   0  0  0  0  0  0
   -1.6119   -1.6552    0.4212 C   0  0  0  0  0  0
   -1.7683   -3.0685    0.7663 N   0  3  0  0  0  0
   -0.7407   -3.8927    0.1294 C   0  0  0  0  0  0
    0.6646   -3.4542    0.5423 C   0  0  0  0  0  0
    3.8065   -0.0499    3.6634 O   0  0  0  0  0  0
    3.4852   -0.9323    4.7365 C   0  0  0  0  0  0
    4.7135   -1.1201    5.6130 C   0  0  0  0  0  0
    2.3119   -0.3619    5.5177 C   0  0  0  0  0  0
    6.0390   -0.1557    1.9542 N   0  0  0  0  0  0
    7.3461   -0.5446    1.6067 C   0  0  0  0  0  0
    8.3513    0.1108    2.2179 N   0  0  0  0  0  0
    9.5902   -0.2868    1.8612 C   0  0  0  0  0  0
    9.8400   -1.2863    0.9431 C   0  0  0  0  0  0
    8.7246   -1.8802    0.3887 C   0  0  0  0  0  0
    7.4582   -1.5329    0.6987 N   0  5  0  0  0  0
    8.9040   -2.9152   -0.5617 N   0  0  0  0  0  0
    8.1311   -4.0386   -0.8967 C   0  0  0  0  0  0
    7.3471   -4.6367    0.0900 C   0  0  0  0  0  0
    6.5718   -5.7546   -0.2178 C   0  0  0  0  0  0
    6.5804   -6.2745   -1.5122 C   0  0  0  0  0  0
    7.3644   -5.6764   -2.4987 C   0  0  0  0  0  0
    8.1398   -4.5585   -2.1910 C   0  0  0  0  0  0
    9.1123   -3.8385   -3.4566 S   0  0  0  0  0  0
   10.4267   -3.5580   -2.9006 O   0  0  0  0  0  0
    8.9897   -4.6495   -4.6583 O   0  0  0  0  0  0
    8.3138   -2.2863   -3.7910 C   0  0  0  0  0  0
    6.8824   -2.5217   -4.2455 C   0  0  0  0  0  0
    9.1068   -1.5022   -4.8241 C   0  0  0  0  0  0
   11.4533   -1.7221    0.5534 Cl  0  0  0  0  0  0
    4.1844   -2.0464   -2.0812 H   0  0  0  0  0  0
    2.4816   -1.4761   -2.1232 H   0  0  0  0  0  0
    2.8614   -3.1267   -1.5250 H   0  0  0  0  0  0
    5.4602   -1.1537   -0.4307 H   0  0  0  0  0  0
    1.5704   -0.9338    2.6471 H   0  0  0  0  0  0
    0.8762   -1.8275   -0.8535 H   0  0  0  0  0  0
   -0.1770   -1.1580    1.9441 H   0  0  0  0  0  0
   -0.1491   -0.0809    0.5069 H   0  0  0  0  0  0
   -2.4021   -1.0832    0.9295 H   0  0  0  0  0  0
   -1.7246   -1.5482   -0.6678 H   0  0  0  0  0  0
   -1.6867   -3.1910    1.8564 H   0  0  0  0  0  0
   -0.8783   -4.9434    0.4246 H   0  0  0  0  0  0
   -0.8256   -3.8049   -0.9638 H   0  0  0  0  0  0
    1.3991   -4.0567   -0.0123 H   0  0  0  0  0  0
    0.7859   -3.6303    1.6214 H   0  0  0  0  0  0
    3.1985   -1.8963    4.2910 H   0  0  0  0  0  0
    4.4712   -1.8003    6.4428 H   0  0  0  0  0  0
    5.0281   -0.1465    6.0168 H   0  0  0  0  0  0
    5.5296   -1.5495    5.0134 H   0  0  0  0  0  0
    2.0598   -1.0390    6.3471 H   0  0  0  0  0  0
    1.4429   -0.2591    4.8511 H   0  0  0  0  0  0
    2.5843    0.6250    5.9199 H   0  0  0  0  0  0
    5.8812    0.6463    2.6903 H   0  0  0  0  0  0
   10.3514    0.1876    2.3034 H   0  0  0  0  0  0
    7.3317   -4.2415    1.1027 H   0  0  0  0  0  0
    5.9624   -6.2210    0.5510 H   0  0  0  0  0  0
    5.9783   -7.1461   -1.7513 H   0  0  0  0  0  0
    7.3637   -6.0911   -3.5033 H   0  0  0  0  0  0
    8.1992   -1.5681   -2.9657 H   0  0  0  0  0  0
    6.3988   -1.5550   -4.4493 H   0  0  0  0  0  0
    6.3287   -3.0492   -3.4549 H   0  0  0  0  0  0
    6.8841   -3.1312   -5.1612 H   0  0  0  0  0  0
    8.6036   -0.5444   -5.0229 H   0  0  0  0  0  0
    9.1703   -2.0834   -5.7559 H   0  0  0  0  0  0
   10.1201   -1.3115   -4.4411 H   0  0  0  0  0  0
   -2.7548   -3.4210    0.4305 H   0  0  0  0  0  0
  1  2  1  0  0  0
  1 39  1  0  0  0
  1 40  1  0  0  0
  1 41  1  0  0  0
  2  7  2  0  0  0
  2  3  1  0  0  0
  3  4  2  0  0  0
  3 42  1  0  0  0
  4  5  1  0  0  0
  4 18  1  0  0  0
  5  6  2  0  0  0
  5 14  1  0  0  0
  6  7  1  0  0  0
  6 43  1  0  0  0
  7  8  1  0  0  0
  8 13  1  0  0  0
  8  9  1  0  0  0
  8 44  1  0  0  0
  9 10  1  0  0  0
  9 45  1  0  0  0
  9 46  1  0  0  0
 10 11  1  0  0  0
 10 47  1  0  0  0
 10 48  1  0  0  0
 11 12  1  0  0  0
 11 49  1  0  0  0
 11 74  1  0  0  0
 12 13  1  0  0  0
 12 50  1  0  0  0
 12 51  1  0  0  0
 13 52  1  0  0  0
 13 53  1  0  0  0
 14 15  1  0  0  0
 15 16  1  0  0  0
 15 17  1  0  0  0
 15 54  1  0  0  0
 16 55  1  0  0  0
 16 56  1  0  0  0
 16 57  1  0  0  0
 17 58  1  0  0  0
 17 59  1  0  0  0
 17 60  1  0  0  0
 18 19  1  0  0  0
 18 61  1  0  0  0
 19 24  1  0  0  0
 19 20  2  0  0  0
 20 21  1  0  0  0
 21 22  2  0  0  0
 21 62  1  0  0  0
 22 38  1  0  0  0
 22 23  1  0  0  0
 23 25  2  0  0  0
 23 24  1  0  0  0
 25 26  1  0  0  0
 26 31  2  0  0  0
 26 27  1  0  0  0
 27 28  2  0  0  0
 27 63  1  0  0  0
 28 29  1  0  0  0
 28 64  1  0  0  0
 29 30  2  0  0  0
 29 65  1  0  0  0
 30 31  1  0  0  0
 30 66  1  0  0  0
 31 32  1  0  0  0
 32 33  2  0  0  0
 32 34  2  0  0  0
 32 35  1  0  0  0
 35 36  1  0  0  0
 35 37  1  0  0  0
 35 67  1  0  0  0
 36 68  1  0  0  0
 36 69  1  0  0  0
 36 70  1  0  0  0
 37 71  1  0  0  0
 37 72  1  0  0  0
 37 73  1  0  0  0
M  CHG  2  11   1  24  -1
M  END
> <s_m_source_file>
/Users/andrea/Development/mcce-charges/epik_inhibitors/output/Ceritinib/Ceritinib-input.mol2

> <i_m_source_file_index>
1

> <r_epik_Ionization_Penalty>
  8.1517

> <r_epik_Ionization_Penalty_Charging>
  8.1069

> <r_epik_Ionization_Penalty_Neutral>
  0.0448

> <r_epik_State_Penalty>
  9.8633

> <i_epik_Tot_Q>
0

> <s_epik_Chemistry_Notes>
This compound has an imine and may undergo hydrolysis.

$$$$
5-chloro-~{N}2-[2-isopropoxy-5-methyl-4-(4-piperidyl)phenyl]-~{N}4-(2-isopropylsulfonylphenyl)pyrimidine-2,4-diamine
                    3D
 Structure written by MMmdl.
 74 77  0  0  1  0            999 V2000
    3.2115   -2.0848   -1.5694 C   0  0  0  0  0  0
    3.3567   -1.5489   -0.1830 C   0  0  0  0  0  0
    4.6084   -1.1055    0.2442 C   0  0  0  0  0  0
    4.7664   -0.6009    1.5349 C   0  0  0  0  0  0
    3.6728   -0.5396    2.3985 C   0  0  0  0  0  0
    2.4211   -0.9830    1.9713 C   0  0  0  0  0  0
    2.2630   -1.4876    0.6806 C   0  0  0  0  0  0
    0.8893   -1.9647    0.2378 C   0  0  0  0  0  0
   -0.2433   -1.1228    0.8467 C   0  0  0  0  0  0
   -1.6119   -1.6552    0.4212 C   0  0  0  0  0  0
   -1.7683   -3.0685    0.7663 N   0  3  0  0  0  0
   -0.7407   -3.8927    0.1294 C   0  0  0  0  0  0
    0.6646   -3.4542    0.5423 C   0  0  0  0  0  0
    3.8065   -0.0499    3.6634 O   0  0  0  0  0  0
    3.4852   -0.9323    4.7365 C   0  0  0  0  0  0
    4.7135   -1.1201    5.6130 C   0  0  0  0  0  0
    2.3119   -0.3619    5.5177 C   0  0  0  0  0  0
    6.0390   -0.1557    1.9542 N   0  0  0  0  0  0
    7.3461   -0.5446    1.6067 C   0  0  0  0  0  0
    8.3513    0.1108    2.2179 N   0  0  0  0  0  0
    9.5902   -0.2868    1.8612 C   0  0  0  0  0  0
    9.8400   -1.2863    0.9431 C   0  0  0  0  0  0
    8.7246   -1.8802    0.3887 C   0  0  0  0  0  0
    7.4582   -1.5329    0.6987 N   0  5  0  0  0  0
    8.9040   -2.9152   -0.5617 N   0  0  0  0  0  0
    9.9169   -3.1765   -1.4984 C   0  0  0  0  0  0
   10.6188   -2.1046   -2.0499 C   0  0  0  0  0  0
   11.6284   -2.3385   -2.9834 C   0  0  0  0  0  0
   11.9363   -3.6442   -3.3655 C   0  0  0  0  0  0
   11.2344   -4.7160   -2.8141 C   0  0  0  0  0  0
   10.2247   -4.4823   -1.8805 C   0  0  0  0  0  0
    9.3652   -5.8543   -1.2137 S   0  0  0  0  0  0
    7.9466   -5.5335   -1.2175 O   0  0  0  0  0  0
    9.8382   -7.0646   -1.8681 O   0  0  0  0  0  0
    9.9077   -5.9294    0.4771 C   0  0  0  0  0  0
   11.4139   -6.1261    0.5349 C   0  0  0  0  0  0
    9.1706   -7.0360    1.2141 C   0  0  0  0  0  0
   11.4533   -1.7221    0.5534 Cl  0  0  0  0  0  0
    4.1844   -2.0464   -2.0812 H   0  0  0  0  0  0
    2.4816   -1.4761   -2.1232 H   0  0  0  0  0  0
    2.8614   -3.1267   -1.5250 H   0  0  0  0  0  0
    5.4602   -1.1537   -0.4307 H   0  0  0  0  0  0
    1.5704   -0.9338    2.6471 H   0  0  0  0  0  0
    0.8762   -1.8275   -0.8535 H   0  0  0  0  0  0
   -0.1770   -1.1580    1.9441 H   0  0  0  0  0  0
   -0.1491   -0.0809    0.5069 H   0  0  0  0  0  0
   -2.4021   -1.0832    0.9295 H   0  0  0  0  0  0
   -1.7246   -1.5482   -0.6678 H   0  0  0  0  0  0
   -1.6867   -3.1910    1.8564 H   0  0  0  0  0  0
   -0.8783   -4.9434    0.4246 H   0  0  0  0  0  0
   -0.8256   -3.8049   -0.9638 H   0  0  0  0  0  0
    1.3991   -4.0567   -0.0123 H   0  0  0  0  0  0
    0.7859   -3.6303    1.6214 H   0  0  0  0  0  0
    3.1985   -1.8963    4.2910 H   0  0  0  0  0  0
    4.4712   -1.8003    6.4428 H   0  0  0  0  0  0
    5.0281   -0.1465    6.0168 H   0  0  0  0  0  0
    5.5296   -1.5495    5.0134 H   0  0  0  0  0  0
    2.0598   -1.0390    6.3471 H   0  0  0  0  0  0
    1.4429   -0.2591    4.8511 H   0  0  0  0  0  0
    2.5843    0.6250    5.9199 H   0  0  0  0  0  0
    5.8812    0.6463    2.6903 H   0  0  0  0  0  0
   10.3514    0.1876    2.3034 H   0  0  0  0  0  0
   10.3885   -1.0821   -1.7607 H   0  0  0  0  0  0
   12.1739   -1.5035   -3.4137 H   0  0  0  0  0  0
   12.7209   -3.8261   -4.0939 H   0  0  0  0  0  0
   11.4825   -5.7289   -3.1204 H   0  0  0  0  0  0
    9.7455   -5.0505    1.1184 H   0  0  0  0  0  0
   11.7378   -6.1710    1.5852 H   0  0  0  0  0  0
   11.9131   -5.2841    0.0330 H   0  0  0  0  0  0
   11.6808   -7.0653    0.0284 H   0  0  0  0  0  0
    9.5142   -7.0731    2.2584 H   0  0  0  0  0  0
    9.3750   -8.0006    0.7264 H   0  0  0  0  0  0
    8.0894   -6.8351    1.1907 H   0  0  0  0  0  0
   -2.7548   -3.4210    0.4305 H   0  0  0  0  0  0
  1  2  1  0  0  0
  1 39  1  0  0  0
  1 40  1  0  0  0
  1 41  1  0  0  0
  2  7  2  0  0  0
  2  3  1  0  0  0
  3  4  2  0  0  0
  3 42  1  0  0  0
  4  5  1  0  0  0
  4 18  1  0  0  0
  5  6  2  0  0  0
  5 14  1  0  0  0
  6  7  1  0  0  0
  6 43  1  0  0  0
  7  8  1  0  0  0
  8 13  1  0  0  0
  8  9  1  0  0  0
  8 44  1  0  0  0
  9 10  1  0  0  0
  9 45  1  0  0  0
  9 46  1  0  0  0
 10 11  1  0  0  0
 10 47  1  0  0  0
 10 48  1  0  0  0
 11 12  1  0  0  0
 11 49  1  0  0  0
 11 74  1  0  0  0
 12 13  1  0  0  0
 12 50  1  0  0  0
 12 51  1  0  0  0
 13 52  1  0  0  0
 13 53  1  0  0  0
 14 15  1  0  0  0
 15 16  1  0  0  0
 15 17  1  0  0  0
 15 54  1  0  0  0
 16 55  1  0  0  0
 16 56  1  0  0  0
 16 57  1  0  0  0
 17 58  1  0  0  0
 17 59  1  0  0  0
 17 60  1  0  0  0
 18 19  1  0  0  0
 18 61  1  0  0  0
 19 24  1  0  0  0
 19 20  2  0  0  0
 20 21  1  0  0  0
 21 22  2  0  0  0
 21 62  1  0  0  0
 22 38  1  0  0  0
 22 23  1  0  0  0
 23 25  2  0  0  0
 23 24  1  0  0  0
 25 26  1  0  0  0
 26 31  2  0  0  0
 26 27  1  0  0  0
 27 28  2  0  0  0
 27 63  1  0  0  0
 28 29  1  0  0  0
 28 64  1  0  0  0
 29 30  2  0  0  0
 29 65  1  0  0  0
 30 31  1  0  0  0
 30 66  1  0  0  0
 31 32  1  0  0  0
 32 33  2  0  0  0
 32 34  2  0  0  0
 32 35  1  0  0  0
 35 36  1  0  0  0
 35 37  1  0  0  0
 35 67  1  0  0  0
 36 68  1  0  0  0
 36 69  1  0  0  0
 36 70  1  0  0  0
 37 71  1  0  0  0
 37 72  1  0  0  0
 37 73  1  0  0  0
M  CHG  2  11   1  24  -1
M  END
> <s_m_source_file>
/Users/andrea/Development/mcce-charges/epik_inhibitors/output/Ceritinib/Ceritinib-input.mol2

> <i_m_source_file_index>
1

> <r_epik_Ionization_Penalty>
  8.1517

> <r_epik_Ionization_Penalty_Charging>
  8.1069

> <r_epik_Ionization_Penalty_Neutral>
  0.0448

> <r_epik_State_Penalty>
  9.8633

> <i_epik_Tot_Q>
0

> <s_epik_Chemistry_Notes>
This compound has an imine and may undergo hydrolysis.

$$$$
5-chloro-~{N}2-[2-isopropoxy-5-methyl-4-(4-piperidyl)phenyl]-~{N}4-(2-isopropylsulfonylphenyl)pyrimidine-2,4-diamine
                    3D
 Structure written by MMmdl.
 75 78  0  0  1  0            999 V2000
    3.2115   -2.0848   -1.5694 C   0  0  0  0  0  0
    3.3567   -1.5489   -0.1830 C   0  0  0  0  0  0
    4.6084   -1.1055    0.2442 C   0  0  0  0  0  0
    4.7664   -0.6009    1.5349 C   0  0  0  0  0  0
    3.6728   -0.5396    2.3985 C   0  0  0  0  0  0
    2.4211   -0.9830    1.9713 C   0  0  0  0  0  0
    2.2630   -1.4876    0.6806 C   0  0  0  0  0  0
    0.8893   -1.9647    0.2378 C   0  0  0  0  0  0
   -0.2433   -1.1228    0.8467 C   0  0  0  0  0  0
   -1.6119   -1.6552    0.4212 C   0  0  0  0  0  0
   -1.7683   -3.0685    0.7663 N   0  3  0  0  0  0
   -0.7407   -3.8927    0.1294 C   0  0  0  0  0  0
    0.6646   -3.4542    0.5423 C   0  0  0  0  0  0
    3.8065   -0.0499    3.6634 O   0  0  0  0  0  0
    3.4852   -0.9323    4.7365 C   0  0  0  0  0  0
    4.7135   -1.1201    5.6130 C   0  0  0  0  0  0
    2.3119   -0.3619    5.5177 C   0  0  0  0  0  0
    6.0390   -0.1557    1.9542 N   0  0  0  0  0  0
    7.3461   -0.5446    1.6067 C   0  0  0  0  0  0
    8.3513    0.1108    2.2179 N   0  0  0  0  0  0
    9.5902   -0.2868    1.8612 C   0  0  0  0  0  0
    9.8400   -1.2863    0.9431 C   0  0  0  0  0  0
    8.7246   -1.8802    0.3887 C   0  0  0  0  0  0
    7.4582   -1.5329    0.6987 N   0  0  0  0  0  0
    8.9040   -2.9152   -0.5617 N   0  0  0  0  0  0
    8.1311   -4.0386   -0.8967 C   0  0  0  0  0  0
    7.3471   -4.6367    0.0900 C   0  0  0  0  0  0
    6.5718   -5.7546   -0.2178 C   0  0  0  0  0  0
    6.5804   -6.2745   -1.5122 C   0  0  0  0  0  0
    7.3644   -5.6764   -2.4987 C   0  0  0  0  0  0
    8.1398   -4.5585   -2.1910 C   0  0  0  0  0  0
    9.1123   -3.8385   -3.4566 S   0  0  0  0  0  0
   10.4267   -3.5580   -2.9006 O   0  0  0  0  0  0
    8.9897   -4.6495   -4.6583 O   0  0  0  0  0  0
    8.3138   -2.2863   -3.7910 C   0  0  0  0  0  0
    6.8824   -2.5217   -4.2455 C   0  0  0  0  0  0
    9.1068   -1.5022   -4.8241 C   0  0  0  0  0  0
   11.4533   -1.7221    0.5534 Cl  0  0  0  0  0  0
    4.1844   -2.0464   -2.0812 H   0  0  0  0  0  0
    2.4816   -1.4761   -2.1232 H   0  0  0  0  0  0
    2.8614   -3.1267   -1.5250 H   0  0  0  0  0  0
    5.4602   -1.1537   -0.4307 H   0  0  0  0  0  0
    1.5704   -0.9338    2.6471 H   0  0  0  0  0  0
    0.8762   -1.8275   -0.8535 H   0  0  0  0  0  0
   -0.1770   -1.1580    1.9441 H   0  0  0  0  0  0
   -0.1491   -0.0809    0.5069 H   0  0  0  0  0  0
   -2.4021   -1.0832    0.9295 H   0  0  0  0  0  0
   -1.7246   -1.5482   -0.6678 H   0  0  0  0  0  0
   -1.6867   -3.1910    1.8564 H   0  0  0  0  0  0
   -0.8783   -4.9434    0.4246 H   0  0  0  0  0  0
   -0.8256   -3.8049   -0.9638 H   0  0  0  0  0  0
    1.3991   -4.0567   -0.0123 H   0  0  0  0  0  0
    0.7859   -3.6303    1.6214 H   0  0  0  0  0  0
    3.1985   -1.8963    4.2910 H   0  0  0  0  0  0
    4.4712   -1.8003    6.4428 H   0  0  0  0  0  0
    5.0281   -0.1465    6.0168 H   0  0  0  0  0  0
    5.5296   -1.5495    5.0134 H   0  0  0  0  0  0
    2.0598   -1.0390    6.3471 H   0  0  0  0  0  0
    1.4429   -0.2591    4.8511 H   0  0  0  0  0  0
    2.5843    0.6250    5.9199 H   0  0  0  0  0  0
    5.8812    0.6463    2.6903 H   0  0  0  0  0  0
   10.3514    0.1876    2.3034 H   0  0  0  0  0  0
    7.3317   -4.2415    1.1027 H   0  0  0  0  0  0
    5.9624   -6.2210    0.5510 H   0  0  0  0  0  0
    5.9783   -7.1461   -1.7513 H   0  0  0  0  0  0
    7.3637   -6.0911   -3.5033 H   0  0  0  0  0  0
    8.1992   -1.5681   -2.9657 H   0  0  0  0  0  0
    6.3988   -1.5550   -4.4493 H   0  0  0  0  0  0
    6.3287   -3.0492   -3.4549 H   0  0  0  0  0  0
    6.8841   -3.1312   -5.1612 H   0  0  0  0  0  0
    8.6036   -0.5444   -5.0229 H   0  0  0  0  0  0
    9.1703   -2.0834   -5.7559 H   0  0  0  0  0  0
   10.1201   -1.3115   -4.4411 H   0  0  0  0  0  0
   -2.7548   -3.4210    0.4305 H   0  0  0  0  0  0
    6.6134   -2.0483    0.2185 H   0  0  0  0  0  0
  1  2  1  0  0  0
  1 39  1  0  0  0
  1 40  1  0  0  0
  1 41  1  0  0  0
  2  7  2  0  0  0
  2  3  1  0  0  0
  3  4  2  0  0  0
  3 42  1  0  0  0
  4  5  1  0  0  0
  4 18  1  0  0  0
  5  6  2  0  0  0
  5 14  1  0  0  0
  6  7  1  0  0  0
  6 43  1  0  0  0
  7  8  1  0  0  0
  8 13  1  0  0  0
  8  9  1  0  0  0
  8 44  1  0  0  0
  9 10  1  0  0  0
  9 45  1  0  0  0
  9 46  1  0  0  0
 10 11  1  0  0  0
 10 47  1  0  0  0
 10 48  1  0  0  0
 11 12  1  0  0  0
 11 49  1  0  0  0
 11 74  1  0  0  0
 12 13  1  0  0  0
 12 50  1  0  0  0
 12 51  1  0  0  0
 13 52  1  0  0  0
 13 53  1  0  0  0
 14 15  1  0  0  0
 15 16  1  0  0  0
 15 17  1  0  0  0
 15 54  1  0  0  0
 16 55  1  0  0  0
 16 56  1  0  0  0
 16 57  1  0  0  0
 17 58  1  0  0  0
 17 59  1  0  0  0
 17 60  1  0  0  0
 18 19  1  0  0  0
 18 61  1  0  0  0
 19 24  1  0  0  0
 19 20  2  0  0  0
 20 21  1  0  0  0
 21 22  2  0  0  0
 21 62  1  0  0  0
 22 38  1  0  0  0
 22 23  1  0  0  0
 23 25  2  0  0  0
 23 24  1  0  0  0
 24 75  1  0  0  0
 25 26  1  0  0  0
 26 31  2  0  0  0
 26 27  1  0  0  0
 27 28  2  0  0  0
 27 63  1  0  0  0
 28 29  1  0  0  0
 28 64  1  0  0  0
 29 30  2  0  0  0
 29 65  1  0  0  0
 30 31  1  0  0  0
 30 66  1  0  0  0
 31 32  1  0  0  0
 32 33  2  0  0  0
 32 34  2  0  0  0
 32 35  1  0  0  0
 35 36  1  0  0  0
 35 37  1  0  0  0
 35 67  1  0  0  0
 36 68  1  0  0  0
 36 69  1  0  0  0
 36 70  1  0  0  0
 37 71  1  0  0  0
 37 72  1  0  0  0
 37 73  1  0  0  0
M  CHG  1  11   1
M  END
> <s_m_source_file>
/Users/andrea/Development/mcce-charges/epik_inhibitors/output/Ceritinib/Ceritinib-input.mol2

> <i_m_source_file_index>
1

> <r_lp_tautomer_probability>
2.3729973509737e-08

> <r_epik_Ionization_Penalty>
  4.5649

> <r_epik_Ionization_Penalty_Charging>
  4.5638

> <r_epik_Ionization_Penalty_Neutral>
  0.0010

> <r_epik_State_Penalty>
 10.5550

> <i_epik_Tot_Q>
1

$$$$
5-chloro-~{N}2-[2-isopropoxy-5-methyl-4-(4-piperidyl)phenyl]-~{N}4-(2-isopropylsulfonylphenyl)pyrimidine-2,4-diamine
                    3D
 Structure written by MMmdl.
 75 78  0  0  1  0            999 V2000
    3.2115   -2.0848   -1.5694 C   0  0  0  0  0  0
    3.3567   -1.5489   -0.1830 C   0  0  0  0  0  0
    4.6084   -1.1055    0.2442 C   0  0  0  0  0  0
    4.7664   -0.6009    1.5349 C   0  0  0  0  0  0
    3.6728   -0.5396    2.3985 C   0  0  0  0  0  0
    2.4211   -0.9830    1.9713 C   0  0  0  0  0  0
    2.2630   -1.4876    0.6806 C   0  0  0  0  0  0
    0.8893   -1.9647    0.2378 C   0  0  0  0  0  0
   -0.2433   -1.1228    0.8467 C   0  0  0  0  0  0
   -1.6119   -1.6552    0.4212 C   0  0  0  0  0  0
   -1.7683   -3.0685    0.7663 N   0  3  0  0  0  0
   -0.7407   -3.8927    0.1294 C   0  0  0  0  0  0
    0.6646   -3.4542    0.5423 C   0  0  0  0  0  0
    3.8065   -0.0499    3.6634 O   0  0  0  0  0  0
    3.4852   -0.9323    4.7365 C   0  0  0  0  0  0
    4.7135   -1.1201    5.6130 C   0  0  0  0  0  0
    2.3119   -0.3619    5.5177 C   0  0  0  0  0  0
    6.0390   -0.1557    1.9542 N   0  0  0  0  0  0
    7.3461   -0.5446    1.6067 C   0  0  0  0  0  0
    8.3513    0.1108    2.2179 N   0  0  0  0  0  0
    9.5902   -0.2868    1.8612 C   0  0  0  0  0  0
    9.8400   -1.2863    0.9431 C   0  0  0  0  0  0
    8.7246   -1.8802    0.3887 C   0  0  0  0  0  0
    7.4582   -1.5329    0.6987 N   0  0  0  0  0  0
    8.9040   -2.9152   -0.5617 N   0  0  0  0  0  0
    9.9169   -3.1765   -1.4984 C   0  0  0  0  0  0
   10.6188   -2.1046   -2.0499 C   0  0  0  0  0  0
   11.6284   -2.3385   -2.9834 C   0  0  0  0  0  0
   11.9363   -3.6442   -3.3655 C   0  0  0  0  0  0
   11.2344   -4.7160   -2.8141 C   0  0  0  0  0  0
   10.2247   -4.4823   -1.8805 C   0  0  0  0  0  0
    9.3652   -5.8543   -1.2137 S   0  0  0  0  0  0
    7.9466   -5.5335   -1.2175 O   0  0  0  0  0  0
    9.8382   -7.0646   -1.8681 O   0  0  0  0  0  0
    9.9077   -5.9294    0.4771 C   0  0  0  0  0  0
   11.4139   -6.1261    0.5349 C   0  0  0  0  0  0
    9.1706   -7.0360    1.2141 C   0  0  0  0  0  0
   11.4533   -1.7221    0.5534 Cl  0  0  0  0  0  0
    4.1844   -2.0464   -2.0812 H   0  0  0  0  0  0
    2.4816   -1.4761   -2.1232 H   0  0  0  0  0  0
    2.8614   -3.1267   -1.5250 H   0  0  0  0  0  0
    5.4602   -1.1537   -0.4307 H   0  0  0  0  0  0
    1.5704   -0.9338    2.6471 H   0  0  0  0  0  0
    0.8762   -1.8275   -0.8535 H   0  0  0  0  0  0
   -0.1770   -1.1580    1.9441 H   0  0  0  0  0  0
   -0.1491   -0.0809    0.5069 H   0  0  0  0  0  0
   -2.4021   -1.0832    0.9295 H   0  0  0  0  0  0
   -1.7246   -1.5482   -0.6678 H   0  0  0  0  0  0
   -1.6867   -3.1910    1.8564 H   0  0  0  0  0  0
   -0.8783   -4.9434    0.4246 H   0  0  0  0  0  0
   -0.8256   -3.8049   -0.9638 H   0  0  0  0  0  0
    1.3991   -4.0567   -0.0123 H   0  0  0  0  0  0
    0.7859   -3.6303    1.6214 H   0  0  0  0  0  0
    3.1985   -1.8963    4.2910 H   0  0  0  0  0  0
    4.4712   -1.8003    6.4428 H   0  0  0  0  0  0
    5.0281   -0.1465    6.0168 H   0  0  0  0  0  0
    5.5296   -1.5495    5.0134 H   0  0  0  0  0  0
    2.0598   -1.0390    6.3471 H   0  0  0  0  0  0
    1.4429   -0.2591    4.8511 H   0  0  0  0  0  0
    2.5843    0.6250    5.9199 H   0  0  0  0  0  0
    5.8812    0.6463    2.6903 H   0  0  0  0  0  0
   10.3514    0.1876    2.3034 H   0  0  0  0  0  0
   10.3885   -1.0821   -1.7607 H   0  0  0  0  0  0
   12.1739   -1.5035   -3.4137 H   0  0  0  0  0  0
   12.7209   -3.8261   -4.0939 H   0  0  0  0  0  0
   11.4825   -5.7289   -3.1204 H   0  0  0  0  0  0
    9.7455   -5.0505    1.1184 H   0  0  0  0  0  0
   11.7378   -6.1710    1.5852 H   0  0  0  0  0  0
   11.9131   -5.2841    0.0330 H   0  0  0  0  0  0
   11.6808   -7.0653    0.0284 H   0  0  0  0  0  0
    9.5142   -7.0731    2.2584 H   0  0  0  0  0  0
    9.3750   -8.0006    0.7264 H   0  0  0  0  0  0
    8.0894   -6.8351    1.1907 H   0  0  0  0  0  0
   -2.7548   -3.4210    0.4305 H   0  0  0  0  0  0
    6.6134   -2.0483    0.2185 H   0  0  0  0  0  0
  1  2  1  0  0  0
  1 39  1  0  0  0
  1 40  1  0  0  0
  1 41  1  0  0  0
  2  7  2  0  0  0
  2  3  1  0  0  0
  3  4  2  0  0  0
  3 42  1  0  0  0
  4  5  1  0  0  0
  4 18  1  0  0  0
  5  6  2  0  0  0
  5 14  1  0  0  0
  6  7  1  0  0  0
  6 43  1  0  0  0
  7  8  1  0  0  0
  8 13  1  0  0  0
  8  9  1  0  0  0
  8 44  1  0  0  0
  9 10  1  0  0  0
  9 45  1  0  0  0
  9 46  1  0  0  0
 10 11  1  0  0  0
 10 47  1  0  0  0
 10 48  1  0  0  0
 11 12  1  0  0  0
 11 49  1  0  0  0
 11 74  1  0  0  0
 12 13  1  0  0  0
 12 50  1  0  0  0
 12 51  1  0  0  0
 13 52  1  0  0  0
 13 53  1  0  0  0
 14 15  1  0  0  0
 15 16  1  0  0  0
 15 17  1  0  0  0
 15 54  1  0  0  0
 16 55  1  0  0  0
 16 56  1  0  0  0
 16 57  1  0  0  0
 17 58  1  0  0  0
 17 59  1  0  0  0
 17 60  1  0  0  0
 18 19  1  0  0  0
 18 61  1  0  0  0
 19 24  1  0  0  0
 19 20  2  0  0  0
 20 21  1  0  0  0
 21 22  2  0  0  0
 21 62  1  0  0  0
 22 38  1  0  0  0
 22 23  1  0  0  0
 23 25  2  0  0  0
 23 24  1  0  0  0
 24 75  1  0  0  0
 25 26  1  0  0  0
 26 31  2  0  0  0
 26 27  1  0  0  0
 27 28  2  0  0  0
 27 63  1  0  0  0
 28 29  1  0  0  0
 28 64  1  0  0  0
 29 30  2  0  0  0
 29 65  1  0  0  0
 30 31  1  0  0  0
 30 66  1  0  0  0
 31 32  1  0  0  0
 32 33  2  0  0  0
 32 34  2  0  0  0
 32 35  1  0  0  0
 35 36  1  0  0  0
 35 37  1  0  0  0
 35 67  1  0  0  0
 36 68  1  0  0  0
 36 69  1  0  0  0
 36 70  1  0  0  0
 37 71  1  0  0  0
 37 72  1  0  0  0
 37 73  1  0  0  0
M  CHG  1  11   1
M  END
> <s_m_source_file>
/Users/andrea/Development/mcce-charges/epik_inhibitors/output/Ceritinib/Ceritinib-input.mol2

> <i_m_source_file_index>
1

> <r_lp_tautomer_probability>
2.3729973509737e-08

> <r_epik_Ionization_Penalty>
  4.5649

> <r_epik_Ionization_Penalty_Charging>
  4.5638

> <r_epik_Ionization_Penalty_Neutral>
  0.0010

> <r_epik_State_Penalty>
 10.5550

> <i_epik_Tot_Q>
1

$$$$
5-chloro-~{N}2-[2-isopropoxy-5-methyl-4-(4-piperidyl)phenyl]-~{N}4-(2-isopropylsulfonylphenyl)pyrimidine-2,4-diamine
                    3D
 Structure written by MMmdl.
 75 78  0  0  1  0            999 V2000
    3.2115   -2.0848   -1.5694 C   0  0  0  0  0  0
    3.3567   -1.5489   -0.1830 C   0  0  0  0  0  0
    4.6084   -1.1055    0.2442 C   0  0  0  0  0  0
    4.7664   -0.6009    1.5349 C   0  0  0  0  0  0
    3.6728   -0.5396    2.3985 C   0  0  0  0  0  0
    2.4211   -0.9830    1.9713 C   0  0  0  0  0  0
    2.2630   -1.4876    0.6806 C   0  0  0  0  0  0
    0.8893   -1.9647    0.2378 C   0  0  0  0  0  0
   -0.2433   -1.1228    0.8467 C   0  0  0  0  0  0
   -1.6119   -1.6552    0.4212 C   0  0  0  0  0  0
   -1.7683   -3.0685    0.7663 N   0  3  0  0  0  0
   -0.7407   -3.8927    0.1294 C   0  0  0  0  0  0
    0.6646   -3.4542    0.5423 C   0  0  0  0  0  0
    3.8065   -0.0499    3.6634 O   0  0  0  0  0  0
    3.4852   -0.9323    4.7365 C   0  0  0  0  0  0
    4.7135   -1.1201    5.6130 C   0  0  0  0  0  0
    2.3119   -0.3619    5.5177 C   0  0  0  0  0  0
    6.0390   -0.1557    1.9542 N   0  0  0  0  0  0
    7.3461   -0.5446    1.6067 C   0  0  0  0  0  0
    8.3513    0.1108    2.2179 N   0  0  0  0  0  0
    9.5902   -0.2868    1.8612 C   0  0  0  0  0  0
    9.8400   -1.2863    0.9431 C   0  0  0  0  0  0
    8.7246   -1.8802    0.3887 C   0  0  0  0  0  0
    7.4582   -1.5329    0.6987 N   0  0  0  0  0  0
    8.9040   -2.9152   -0.5617 N   0  0  0  0  0  0
    9.9169   -3.1765   -1.4984 C   0  0  0  0  0  0
   10.6188   -2.1046   -2.0499 C   0  0  0  0  0  0
   11.6284   -2.3385   -2.9834 C   0  0  0  0  0  0
   11.9363   -3.6442   -3.3655 C   0  0  0  0  0  0
   11.2344   -4.7160   -2.8141 C   0  0  0  0  0  0
   10.2247   -4.4823   -1.8805 C   0  0  0  0  0  0
    9.3652   -5.8543   -1.2137 S   0  0  0  0  0  0
    7.9466   -5.5335   -1.2175 O   0  0  0  0  0  0
    9.8382   -7.0646   -1.8681 O   0  0  0  0  0  0
    9.9077   -5.9294    0.4771 C   0  0  0  0  0  0
   11.4139   -6.1261    0.5349 C   0  0  0  0  0  0
    9.1706   -7.0360    1.2141 C   0  0  0  0  0  0
   11.4533   -1.7221    0.5534 Cl  0  0  0  0  0  0
    4.1844   -2.0464   -2.0812 H   0  0  0  0  0  0
    2.4816   -1.4761   -2.1232 H   0  0  0  0  0  0
    2.8614   -3.1267   -1.5250 H   0  0  0  0  0  0
    5.4602   -1.1537   -0.4307 H   0  0  0  0  0  0
    1.5704   -0.9338    2.6471 H   0  0  0  0  0  0
    0.8762   -1.8275   -0.8535 H   0  0  0  0  0  0
   -0.1770   -1.1580    1.9441 H   0  0  0  0  0  0
   -0.1491   -0.0809    0.5069 H   0  0  0  0  0  0
   -2.4021   -1.0832    0.9295 H   0  0  0  0  0  0
   -1.7246   -1.5482   -0.6678 H   0  0  0  0  0  0
   -1.6867   -3.1910    1.8564 H   0  0  0  0  0  0
   -0.8783   -4.9434    0.4246 H   0  0  0  0  0  0
   -0.8256   -3.8049   -0.9638 H   0  0  0  0  0  0
    1.3991   -4.0567   -0.0123 H   0  0  0  0  0  0
    0.7859   -3.6303    1.6214 H   0  0  0  0  0  0
    3.1985   -1.8963    4.2910 H   0  0  0  0  0  0
    4.4712   -1.8003    6.4428 H   0  0  0  0  0  0
    5.0281   -0.1465    6.0168 H   0  0  0  0  0  0
    5.5296   -1.5495    5.0134 H   0  0  0  0  0  0
    2.0598   -1.0390    6.3471 H   0  0  0  0  0  0
    1.4429   -0.2591    4.8511 H   0  0  0  0  0  0
    2.5843    0.6250    5.9199 H   0  0  0  0  0  0
    5.8812    0.6463    2.6903 H   0  0  0  0  0  0
   10.3514    0.1876    2.3034 H   0  0  0  0  0  0
   10.3885   -1.0821   -1.7607 H   0  0  0  0  0  0
   12.1739   -1.5035   -3.4137 H   0  0  0  0  0  0
   12.7209   -3.8261   -4.0939 H   0  0  0  0  0  0
   11.4825   -5.7289   -3.1204 H   0  0  0  0  0  0
    9.7455   -5.0505    1.1184 H   0  0  0  0  0  0
   11.7378   -6.1710    1.5852 H   0  0  0  0  0  0
   11.9131   -5.2841    0.0330 H   0  0  0  0  0  0
   11.6808   -7.0653    0.0284 H   0  0  0  0  0  0
    9.5142   -7.0731    2.2584 H   0  0  0  0  0  0
    9.3750   -8.0006    0.7264 H   0  0  0  0  0  0
    8.0894   -6.8351    1.1907 H   0  0  0  0  0  0
   -2.7548   -3.4210    0.4305 H   0  0  0  0  0  0
    8.1279    0.9039    2.9466 H   0  0  0  0  0  0
  1  2  1  0  0  0
  1 39  1  0  0  0
  1 40  1  0  0  0
  1 41  1  0  0  0
  2  7  2  0  0  0
  2  3  1  0  0  0
  3  4  2  0  0  0
  3 42  1  0  0  0
  4  5  1  0  0  0
  4 18  1  0  0  0
  5  6  2  0  0  0
  5 14  1  0  0  0
  6  7  1  0  0  0
  6 43  1  0  0  0
  7  8  1  0  0  0
  8 13  1  0  0  0
  8  9  1  0  0  0
  8 44  1  0  0  0
  9 10  1  0  0  0
  9 45  1  0  0  0
  9 46  1  0  0  0
 10 11  1  0  0  0
 10 47  1  0  0  0
 10 48  1  0  0  0
 11 12  1  0  0  0
 11 49  1  0  0  0
 11 74  1  0  0  0
 12 13  1  0  0  0
 12 50  1  0  0  0
 12 51  1  0  0  0
 13 52  1  0  0  0
 13 53  1  0  0  0
 14 15  1  0  0  0
 15 16  1  0  0  0
 15 17  1  0  0  0
 15 54  1  0  0  0
 16 55  1  0  0  0
 16 56  1  0  0  0
 16 57  1  0  0  0
 17 58  1  0  0  0
 17 59  1  0  0  0
 17 60  1  0  0  0
 18 19  1  0  0  0
 18 61  1  0  0  0
 19 24  2  0  0  0
 19 20  1  0  0  0
 20 21  1  0  0  0
 20 75  1  0  0  0
 21 22  2  0  0  0
 21 62  1  0  0  0
 22 38  1  0  0  0
 22 23  1  0  0  0
 23 25  2  0  0  0
 23 24  1  0  0  0
 25 26  1  0  0  0
 26 31  2  0  0  0
 26 27  1  0  0  0
 27 28  2  0  0  0
 27 63  1  0  0  0
 28 29  1  0  0  0
 28 64  1  0  0  0
 29 30  2  0  0  0
 29 65  1  0  0  0
 30 31  1  0  0  0
 30 66  1  0  0  0
 31 32  1  0  0  0
 32 33  2  0  0  0
 32 34  2  0  0  0
 32 35  1  0  0  0
 35 36  1  0  0  0
 35 37  1  0  0  0
 35 67  1  0  0  0
 36 68  1  0  0  0
 36 69  1  0  0  0
 36 70  1  0  0  0
 37 71  1  0  0  0
 37 72  1  0  0  0
 37 73  1  0  0  0
M  CHG  1  11   1
M  END
> <s_m_source_file>
/Users/andrea/Development/mcce-charges/epik_inhibitors/output/Ceritinib/Ceritinib-input.mol2

> <i_m_source_file_index>
1

> <r_lp_tautomer_probability>
2.78999688546845e-09

> <r_epik_Ionization_Penalty>
  7.0786

> <r_epik_Ionization_Penalty_Charging>
  7.0775

> <r_epik_Ionization_Penalty_Neutral>
  0.0010

> <r_epik_State_Penalty>
 11.5178

> <i_epik_Tot_Q>
1

$$$$
5-chloro-~{N}2-[2-isopropoxy-5-methyl-4-(4-piperidyl)phenyl]-~{N}4-(2-isopropylsulfonylphenyl)pyrimidine-2,4-diamine
                    3D
 Structure written by MMmdl.
 75 78  0  0  1  0            999 V2000
    3.2107   -2.0875   -1.5667 C   0  0  0  0  0  0
    3.3563   -1.5514   -0.1804 C   0  0  0  0  0  0
    4.6080   -1.1075    0.2462 C   0  0  0  0  0  0
    4.7664   -0.6027    1.5368 C   0  0  0  0  0  0
    3.6731   -0.5417    2.4009 C   0  0  0  0  0  0
    2.4214   -0.9856    1.9743 C   0  0  0  0  0  0
    2.2630   -1.4904    0.6837 C   0  0  0  0  0  0
    0.8893   -1.9681    0.2415 C   0  0  0  0  0  0
   -0.2434   -1.1266    0.8508 C   0  0  0  0  0  0
   -1.6120   -1.6596    0.4259 C   0  0  0  0  0  0
   -1.7677   -3.0729    0.7712 N   0  3  0  0  0  0
   -0.7400   -3.8968    0.1340 C   0  0  0  0  0  0
    0.6653   -3.4577    0.5463 C   0  0  0  0  0  0
    3.8072   -0.0518    3.6657 O   0  0  0  0  0  0
    3.4867   -0.9342    4.7390 C   0  0  0  0  0  0
    4.7154   -1.1215    5.6150 C   0  0  0  0  0  0
    2.3135   -0.3642    5.5206 C   0  0  0  0  0  0
    6.0390   -0.1569    1.9555 N   0  0  0  0  0  0
    7.3461   -0.5454    1.6075 C   0  0  0  0  0  0
    8.3513    0.1108    2.2179 N   0  0  0  0  0  0
    9.5902   -0.2866    1.8610 C   0  0  0  0  0  0
    9.8400   -1.2863    0.9431 C   0  0  0  0  0  0
    8.7246   -1.8805    0.3891 C   0  0  0  0  0  0
    7.4582   -1.5337    0.6996 N   0  0  0  0  0  0
    8.9040   -2.9155   -0.5613 N   0  0  0  0  0  0
    8.1313   -4.0392   -0.8960 C   0  0  0  0  0  0
    7.3477   -4.6374    0.0909 C   0  0  0  0  0  0
    6.5726   -5.7555   -0.2166 C   0  0  0  0  0  0
    6.5810   -6.2755   -1.5109 C   0  0  0  0  0  0
    7.3646   -5.6773   -2.4977 C   0  0  0  0  0  0
    8.1398   -4.5592   -2.1903 C   0  0  0  0  0  0
    9.1117   -3.8390   -3.4562 S   0  0  0  0  0  0
   10.4262   -3.5581   -2.9006 O   0  0  0  0  0  0
    8.9890   -4.6501   -4.6578 O   0  0  0  0  0  0
    8.3127   -2.2870   -3.7905 C   0  0  0  0  0  0
    6.8813   -2.5228   -4.2446 C   0  0  0  0  0  0
    9.1052   -1.5028   -4.8239 C   0  0  0  0  0  0
   11.4533   -1.7221    0.5534 Cl  0  0  0  0  0  0
    4.1834   -2.0487   -2.0788 H   0  0  0  0  0  0
    2.4803   -1.4791   -2.1203 H   0  0  0  0  0  0
    2.8611   -3.1295   -1.5220 H   0  0  0  0  0  0
    5.4596   -1.1554   -0.4290 H   0  0  0  0  0  0
    1.5710   -0.9367    2.6504 H   0  0  0  0  0  0
    0.8756   -1.8310   -0.8498 H   0  0  0  0  0  0
   -0.1766   -1.1616    1.9482 H   0  0  0  0  0  0
   -0.1498   -0.0847    0.5108 H   0  0  0  0  0  0
   -2.4022   -1.0878    0.9345 H   0  0  0  0  0  0
   -1.7252   -1.5527   -0.6630 H   0  0  0  0  0  0
   -1.6856   -3.1952    1.8613 H   0  0  0  0  0  0
   -0.8771   -4.9475    0.4294 H   0  0  0  0  0  0
   -0.8254   -3.8091   -0.9592 H   0  0  0  0  0  0
    1.3997   -4.0600   -0.0086 H   0  0  0  0  0  0
    0.7871   -3.6336    1.6253 H   0  0  0  0  0  0
    3.2001   -1.8984    4.2937 H   0  0  0  0  0  0
    4.4737   -1.8017    6.4450 H   0  0  0  0  0  0
    5.0298   -0.1477    6.0186 H   0  0  0  0  0  0
    5.5315   -1.5506    5.0151 H   0  0  0  0  0  0
    2.0620   -1.0413    6.3502 H   0  0  0  0  0  0
    1.4442   -0.2618    4.8544 H   0  0  0  0  0  0
    2.5857    0.6229    5.9226 H   0  0  0  0  0  0
    6.1221    0.6503    2.6981 H   0  0  0  0  0  0
   10.3954    0.2467    2.3569 H   0  0  0  0  0  0
    7.3325   -4.2421    1.1036 H   0  0  0  0  0  0
    5.9636   -6.2220    0.5524 H   0  0  0  0  0  0
    5.9791   -7.1473   -1.7498 H   0  0  0  0  0  0
    7.3637   -6.0921   -3.5023 H   0  0  0  0  0  0
    8.1981   -1.5688   -2.9652 H   0  0  0  0  0  0
    6.3973   -1.5562   -4.4484 H   0  0  0  0  0  0
    6.3280   -3.0504   -3.4538 H   0  0  0  0  0  0
    6.8828   -3.1324   -5.1603 H   0  0  0  0  0  0
    8.6018   -0.5452   -5.0226 H   0  0  0  0  0  0
    9.1686   -2.0840   -5.7557 H   0  0  0  0  0  0
   10.1186   -1.3118   -4.4411 H   0  0  0  0  0  0
   -2.7542   -3.4258    0.4360 H   0  0  0  0  0  0
    8.1279    0.9044    2.9461 H   0  0  0  0  0  0
  1  2  1  0  0  0
  1 39  1  0  0  0
  1 40  1  0  0  0
  1 41  1  0  0  0
  2  7  2  0  0  0
  2  3  1  0  0  0
  3  4  2  0  0  0
  3 42  1  0  0  0
  4  5  1  0  0  0
  4 18  1  0  0  0
  5  6  2  0  0  0
  5 14  1  0  0  0
  6  7  1  0  0  0
  6 43  1  0  0  0
  7  8  1  0  0  0
  8 13  1  0  0  0
  8  9  1  0  0  0
  8 44  1  0  0  0
  9 10  1  0  0  0
  9 45  1  0  0  0
  9 46  1  0  0  0
 10 11  1  0  0  0
 10 47  1  0  0  0
 10 48  1  0  0  0
 11 12  1  0  0  0
 11 49  1  0  0  0
 11 74  1  0  0  0
 12 13  1  0  0  0
 12 50  1  0  0  0
 12 51  1  0  0  0
 13 52  1  0  0  0
 13 53  1  0  0  0
 14 15  1  0  0  0
 15 16  1  0  0  0
 15 17  1  0  0  0
 15 54  1  0  0  0
 16 55  1  0  0  0
 16 56  1  0  0  0
 16 57  1  0  0  0
 17 58  1  0  0  0
 17 59  1  0  0  0
 17 60  1  0  0  0
 18 19  1  0  0  0
 18 61  1  0  0  0
 19 24  2  0  0  0
 19 20  1  0  0  0
 20 21  1  0  0  0
 20 75  1  0  0  0
 21 22  2  0  0  0
 21 62  1  0  0  0
 22 23  1  0  0  0
 22 38  1  0  0  0
 23 24  1  0  0  0
 23 25  2  0  0  0
 25 26  1  0  0  0
 26 31  2  0  0  0
 26 27  1  0  0  0
 27 28  2  0  0  0
 27 63  1  0  0  0
 28 29  1  0  0  0
 28 64  1  0  0  0
 29 30  2  0  0  0
 29 65  1  0  0  0
 30 31  1  0  0  0
 30 66  1  0  0  0
 31 32  1  0  0  0
 32 33  2  0  0  0
 32 34  2  0  0  0
 32 35  1  0  0  0
 35 36  1  0  0  0
 35 37  1  0  0  0
 35 67  1  0  0  0
 36 68  1  0  0  0
 36 69  1  0  0  0
 36 70  1  0  0  0
 37 71  1  0  0  0
 37 72  1  0  0  0
 37 73  1  0  0  0
M  CHG  1  11   1
M  END
> <s_m_source_file>
/Users/andrea/Development/mcce-charges/epik_inhibitors/output/Ceritinib/Ceritinib-input.mol2

> <i_m_source_file_index>
1

> <r_lp_tautomer_probability>
2.78999688546845e-09

> <r_epik_Ionization_Penalty>
  7.0793

> <r_epik_Ionization_Penalty_Charging>
  7.0775

> <r_epik_Ionization_Penalty_Neutral>
  0.0017

> <r_epik_State_Penalty>
 11.5178

> <i_epik_Tot_Q>
1

$$$$
5-chloro-~{N}2-[2-isopropoxy-5-methyl-4-(4-piperidyl)phenyl]-~{N}4-(2-isopropylsulfonylphenyl)pyrimidine-2,4-diamine
                    3D
 Structure written by MMmdl.
 75 78  0  0  1  0            999 V2000
    6.5953    2.4492    6.0822 C   0  0  0  0  0  0
    5.7893    2.1095    4.8716 C   0  0  0  0  0  0
    6.2736    1.1496    3.9829 C   0  0  0  0  0  0
    5.5369    0.8169    2.8461 C   0  0  0  0  0  0
    4.3159    1.4440    2.5981 C   0  0  0  0  0  0
    3.8316    2.4039    3.4868 C   0  0  0  0  0  0
    4.5683    2.7366    4.6235 C   0  0  0  0  0  0
    4.0201    3.7856    5.5774 C   0  0  0  0  0  0
    2.4871    3.7366    5.6775 C   0  0  0  0  0  0
    1.9630    4.8322    6.6063 C   0  0  0  0  0  0
    2.4164    6.1570    6.1819 N   0  3  0  0  0  0
    3.8770    6.2412    6.1569 C   0  0  0  0  0  0
    4.4817    5.2046    5.2095 C   0  0  0  0  0  0
    3.5811    1.1328    1.4931 O   0  0  0  0  0  0
    3.3084    2.1917    0.5778 C   0  0  0  0  0  0
    3.8934    1.8399   -0.7810 C   0  0  0  0  0  0
    1.8062    2.4171    0.5083 C   0  0  0  0  0  0
    6.0390   -0.1564    1.9550 N   0  0  0  0  0  0
    7.3461   -0.5451    1.6072 C   0  0  0  0  0  0
    8.3513    0.1108    2.2179 N   0  0  0  0  0  0
    9.5902   -0.2866    1.8610 C   0  0  0  0  0  0
    9.8400   -1.2863    0.9431 C   0  0  0  0  0  0
    8.7246   -1.8803    0.3889 C   0  0  0  0  0  0
    7.4582   -1.5334    0.6992 N   0  0  0  0  0  0
    8.9040   -2.9151   -0.5617 N   0  0  0  0  0  0
    8.1312   -4.0386   -0.8969 C   0  0  0  0  0  0
    7.3472   -4.6369    0.0897 C   0  0  0  0  0  0
    6.5720   -5.7548   -0.2182 C   0  0  0  0  0  0
    6.5806   -6.2744   -1.5127 C   0  0  0  0  0  0
    7.3645   -5.6761   -2.4991 C   0  0  0  0  0  0
    8.1398   -4.5583   -2.1913 C   0  0  0  0  0  0
    9.1121   -3.8379   -3.4568 S   0  0  0  0  0  0
   10.4266   -3.5574   -2.9009 O   0  0  0  0  0  0
    8.9895   -4.6487   -4.6586 O   0  0  0  0  0  0
    8.3135   -2.2857   -3.7909 C   0  0  0  0  0  0
    6.8822   -2.5211   -4.2453 C   0  0  0  0  0  0
    9.1064   -1.5014   -4.8239 C   0  0  0  0  0  0
   11.4533   -1.7221    0.5534 Cl  0  0  0  0  0  0
    7.5161    1.8475    6.0903 H   0  0  0  0  0  0
    6.0077    2.2325    6.9865 H   0  0  0  0  0  0
    6.8557    3.5177    6.0614 H   0  0  0  0  0  0
    7.2259    0.6612    4.1779 H   0  0  0  0  0  0
    2.8793    2.8910    3.2906 H   0  0  0  0  0  0
    4.4409    3.5273    6.5603 H   0  0  0  0  0  0
    2.0496    3.8820    4.6788 H   0  0  0  0  0  0
    2.1767    2.7591    6.0751 H   0  0  0  0  0  0
    0.8630    4.8224    6.6008 H   0  0  0  0  0  0
    2.3261    4.6509    7.6287 H   0  0  0  0  0  0
    2.0382    6.3675    5.1707 H   0  0  0  0  0  0
    4.1808    7.2423    5.8172 H   0  0  0  0  0  0
    4.2720    6.0614    7.1676 H   0  0  0  0  0  0
    5.5781    5.2626    5.2771 H   0  0  0  0  0  0
    4.1648    5.4386    4.1825 H   0  0  0  0  0  0
    3.7996    3.0949    0.9687 H   0  0  0  0  0  0
    3.6858    2.6538   -1.4913 H   0  0  0  0  0  0
    3.4366    0.9085   -1.1468 H   0  0  0  0  0  0
    4.9808    1.7031   -0.6877 H   0  0  0  0  0  0
    1.5902    3.2333   -0.1968 H   0  0  0  0  0  0
    1.4291    2.6851    1.5063 H   0  0  0  0  0  0
    1.3127    1.4958    0.1651 H   0  0  0  0  0  0
   10.3514    0.1880    2.3030 H   0  0  0  0  0  0
    9.7945   -2.9205   -1.2074 H   0  0  0  0  0  0
    7.3319   -4.2418    1.1025 H   0  0  0  0  0  0
    5.9627   -6.2213    0.5505 H   0  0  0  0  0  0
    5.9785   -7.1461   -1.7519 H   0  0  0  0  0  0
    7.3637   -6.0907   -3.5038 H   0  0  0  0  0  0
    8.1989   -1.5677   -2.9655 H   0  0  0  0  0  0
    6.3984   -1.5544   -4.4490 H   0  0  0  0  0  0
    6.3286   -3.0488   -3.4548 H   0  0  0  0  0  0
    6.8838   -3.1304   -5.1612 H   0  0  0  0  0  0
    8.6031   -0.5436   -5.0225 H   0  0  0  0  0  0
    9.1699   -2.0824   -5.7558 H   0  0  0  0  0  0
   10.1197   -1.3107   -4.4409 H   0  0  0  0  0  0
    2.0359    6.9162    6.8811 H   0  0  0  0  0  0
    6.6133   -2.0490    0.2193 H   0  0  0  0  0  0
  1  2  1  0  0  0
  1 39  1  0  0  0
  1 40  1  0  0  0
  1 41  1  0  0  0
  2  7  2  0  0  0
  2  3  1  0  0  0
  3  4  2  0  0  0
  3 42  1  0  0  0
  4  5  1  0  0  0
  4 18  1  0  0  0
  5  6  2  0  0  0
  5 14  1  0  0  0
  6  7  1  0  0  0
  6 43  1  0  0  0
  7  8  1  0  0  0
  8 13  1  0  0  0
  8  9  1  0  0  0
  8 44  1  0  0  0
  9 10  1  0  0  0
  9 45  1  0  0  0
  9 46  1  0  0  0
 10 11  1  0  0  0
 10 47  1  0  0  0
 10 48  1  0  0  0
 11 12  1  0  0  0
 11 49  1  0  0  0
 11 74  1  0  0  0
 12 13  1  0  0  0
 12 50  1  0  0  0
 12 51  1  0  0  0
 13 52  1  0  0  0
 13 53  1  0  0  0
 14 15  1  0  0  0
 15 16  1  0  0  0
 15 17  1  0  0  0
 15 54  1  0  0  0
 16 55  1  0  0  0
 16 56  1  0  0  0
 16 57  1  0  0  0
 17 58  1  0  0  0
 17 59  1  0  0  0
 17 60  1  0  0  0
 18 19  2  0  0  0
 19 24  1  0  0  0
 19 20  1  0  0  0
 20 21  2  0  0  0
 21 22  1  0  0  0
 21 61  1  0  0  0
 22 38  1  0  0  0
 22 23  2  0  0  0
 23 25  1  0  0  0
 23 24  1  0  0  0
 24 75  1  0  0  0
 25 26  1  0  0  0
 25 62  1  0  0  0
 26 31  2  0  0  0
 26 27  1  0  0  0
 27 28  2  0  0  0
 27 63  1  0  0  0
 28 29  1  0  0  0
 28 64  1  0  0  0
 29 30  2  0  0  0
 29 65  1  0  0  0
 30 31  1  0  0  0
 30 66  1  0  0  0
 31 32  1  0  0  0
 32 33  2  0  0  0
 32 34  2  0  0  0
 32 35  1  0  0  0
 35 36  1  0  0  0
 35 37  1  0  0  0
 35 67  1  0  0  0
 36 68  1  0  0  0
 36 69  1  0  0  0
 36 70  1  0  0  0
 37 71  1  0  0  0
 37 72  1  0  0  0
 37 73  1  0  0  0
M  CHG  1  11   1
M  END
> <s_m_source_file>
/Users/andrea/Development/mcce-charges/epik_inhibitors/output/Ceritinib/Ceritinib-input.mol2

> <i_m_source_file_index>
1

> <r_lp_tautomer_probability>
6.1419931435653e-10

> <r_epik_Ionization_Penalty>
  9.4321

> <r_epik_Ionization_Penalty_Charging>
  9.3700

> <r_epik_Ionization_Penalty_Neutral>
  0.0622

> <r_epik_State_Penalty>
 12.8314

> <i_epik_Tot_Q>
1

$$$$
5-chloro-~{N}2-[2-isopropoxy-5-methyl-4-(4-piperidyl)phenyl]-~{N}4-(2-isopropylsulfonylphenyl)pyrimidine-2,4-diamine
                    3D
 Structure written by MMmdl.
 74 77  0  0  1  0            999 V2000
    6.5953    2.4492    6.0822 C   0  0  0  0  0  0
    5.7893    2.1095    4.8716 C   0  0  0  0  0  0
    6.2736    1.1496    3.9829 C   0  0  0  0  0  0
    5.5369    0.8169    2.8461 C   0  0  0  0  0  0
    4.3159    1.4440    2.5981 C   0  0  0  0  0  0
    3.8316    2.4039    3.4868 C   0  0  0  0  0  0
    4.5683    2.7366    4.6235 C   0  0  0  0  0  0
    4.0201    3.7856    5.5774 C   0  0  0  0  0  0
    2.4871    3.7366    5.6775 C   0  0  0  0  0  0
    1.9630    4.8322    6.6063 C   0  0  0  0  0  0
    2.4164    6.1570    6.1819 N   0  0  0  0  0  0
    3.8770    6.2412    6.1569 C   0  0  0  0  0  0
    4.4817    5.2046    5.2095 C   0  0  0  0  0  0
    3.5811    1.1328    1.4931 O   0  0  0  0  0  0
    3.3084    2.1917    0.5778 C   0  0  0  0  0  0
    3.8934    1.8399   -0.7810 C   0  0  0  0  0  0
    1.8062    2.4171    0.5083 C   0  0  0  0  0  0
    6.0390   -0.1564    1.9550 N   0  0  0  0  0  0
    7.3461   -0.5451    1.6072 C   0  0  0  0  0  0
    8.3513    0.1108    2.2179 N   0  0  0  0  0  0
    9.5902   -0.2866    1.8610 C   0  0  0  0  0  0
    9.8400   -1.2863    0.9431 C   0  0  0  0  0  0
    8.7246   -1.8803    0.3889 C   0  0  0  0  0  0
    7.4582   -1.5334    0.6992 N   0  0  0  0  0  0
    8.9040   -2.9151   -0.5617 N   0  0  0  0  0  0
    8.1312   -4.0386   -0.8969 C   0  0  0  0  0  0
    7.3472   -4.6369    0.0897 C   0  0  0  0  0  0
    6.5720   -5.7548   -0.2182 C   0  0  0  0  0  0
    6.5806   -6.2744   -1.5127 C   0  0  0  0  0  0
    7.3645   -5.6761   -2.4991 C   0  0  0  0  0  0
    8.1398   -4.5583   -2.1913 C   0  0  0  0  0  0
    9.1121   -3.8379   -3.4568 S   0  0  0  0  0  0
   10.4266   -3.5574   -2.9009 O   0  0  0  0  0  0
    8.9895   -4.6487   -4.6586 O   0  0  0  0  0  0
    8.3135   -2.2857   -3.7909 C   0  0  0  0  0  0
    6.8822   -2.5211   -4.2453 C   0  0  0  0  0  0
    9.1064   -1.5014   -4.8239 C   0  0  0  0  0  0
   11.4533   -1.7221    0.5534 Cl  0  0  0  0  0  0
    7.5161    1.8475    6.0903 H   0  0  0  0  0  0
    6.0077    2.2325    6.9865 H   0  0  0  0  0  0
    6.8557    3.5177    6.0614 H   0  0  0  0  0  0
    7.2259    0.6612    4.1779 H   0  0  0  0  0  0
    2.8793    2.8910    3.2906 H   0  0  0  0  0  0
    4.4409    3.5273    6.5603 H   0  0  0  0  0  0
    2.0496    3.8820    4.6788 H   0  0  0  0  0  0
    2.1767    2.7591    6.0751 H   0  0  0  0  0  0
    0.8630    4.8224    6.6008 H   0  0  0  0  0  0
    2.3261    4.6509    7.6287 H   0  0  0  0  0  0
    2.0382    6.3675    5.1707 H   0  0  0  0  0  0
    4.1808    7.2423    5.8172 H   0  0  0  0  0  0
    4.2720    6.0614    7.1676 H   0  0  0  0  0  0
    5.5781    5.2626    5.2771 H   0  0  0  0  0  0
    4.1648    5.4386    4.1825 H   0  0  0  0  0  0
    3.7996    3.0949    0.9687 H   0  0  0  0  0  0
    3.6858    2.6538   -1.4913 H   0  0  0  0  0  0
    3.4366    0.9085   -1.1468 H   0  0  0  0  0  0
    4.9808    1.7031   -0.6877 H   0  0  0  0  0  0
    1.5902    3.2333   -0.1968 H   0  0  0  0  0  0
    1.4291    2.6851    1.5063 H   0  0  0  0  0  0
    1.3127    1.4958    0.1651 H   0  0  0  0  0  0
   10.3514    0.1880    2.3030 H   0  0  0  0  0  0
    9.7945   -2.9205   -1.2074 H   0  0  0  0  0  0
    7.3319   -4.2418    1.1025 H   0  0  0  0  0  0
    5.9627   -6.2213    0.5505 H   0  0  0  0  0  0
    5.9785   -7.1461   -1.7519 H   0  0  0  0  0  0
    7.3637   -6.0907   -3.5038 H   0  0  0  0  0  0
    8.1989   -1.5677   -2.9655 H   0  0  0  0  0  0
    6.3984   -1.5544   -4.4490 H   0  0  0  0  0  0
    6.3286   -3.0488   -3.4548 H   0  0  0  0  0  0
    6.8838   -3.1304   -5.1612 H   0  0  0  0  0  0
    8.6031   -0.5436   -5.0225 H   0  0  0  0  0  0
    9.1699   -2.0824   -5.7558 H   0  0  0  0  0  0
   10.1197   -1.3107   -4.4409 H   0  0  0  0  0  0
    8.1279    0.9041    2.9464 H   0  0  0  0  0  0
  1  2  1  0  0  0
  1 39  1  0  0  0
  1 40  1  0  0  0
  1 41  1  0  0  0
  2  7  2  0  0  0
  2  3  1  0  0  0
  3  4  2  0  0  0
  3 42  1  0  0  0
  4  5  1  0  0  0
  4 18  1  0  0  0
  5  6  2  0  0  0
  5 14  1  0  0  0
  6  7  1  0  0  0
  6 43  1  0  0  0
  7  8  1  0  0  0
  8 13  1  0  0  0
  8  9  1  0  0  0
  8 44  1  0  0  0
  9 10  1  0  0  0
  9 45  1  0  0  0
  9 46  1  0  0  0
 10 11  1  0  0  0
 10 47  1  0  0  0
 10 48  1  0  0  0
 11 12  1  0  0  0
 11 49  1  0  0  0
 12 13  1  0  0  0
 12 50  1  0  0  0
 12 51  1  0  0  0
 13 52  1  0  0  0
 13 53  1  0  0  0
 14 15  1  0  0  0
 15 16  1  0  0  0
 15 17  1  0  0  0
 15 54  1  0  0  0
 16 55  1  0  0  0
 16 56  1  0  0  0
 16 57  1  0  0  0
 17 58  1  0  0  0
 17 59  1  0  0  0
 17 60  1  0  0  0
 18 19  2  0  0  0
 19 24  1  0  0  0
 19 20  1  0  0  0
 20 21  1  0  0  0
 20 74  1  0  0  0
 21 22  2  0  0  0
 21 61  1  0  0  0
 22 38  1  0  0  0
 22 23  1  0  0  0
 23 25  1  0  0  0
 23 24  2  0  0  0
 25 26  1  0  0  0
 25 62  1  0  0  0
 26 31  2  0  0  0
 26 27  1  0  0  0
 27 28  2  0  0  0
 27 63  1  0  0  0
 28 29  1  0  0  0
 28 64  1  0  0  0
 29 30  2  0  0  0
 29 65  1  0  0  0
 30 31  1  0  0  0
 30 66  1  0  0  0
 31 32  1  0  0  0
 32 33  2  0  0  0
 32 34  2  0  0  0
 32 35  1  0  0  0
 35 36  1  0  0  0
 35 37  1  0  0  0
 35 67  1  0  0  0
 36 68  1  0  0  0
 36 69  1  0  0  0
 36 70  1  0  0  0
 37 71  1  0  0  0
 37 72  1  0  0  0
 37 73  1  0  0  0
M  END
> <s_m_source_file>
/Users/andrea/Development/mcce-charges/epik_inhibitors/output/Ceritinib/Ceritinib-input.mol2

> <i_m_source_file_index>
1

> <r_lp_tautomer_probability>
5.30999407234317e-07

> <r_epik_Ionization_Penalty>
 11.5021

> <r_epik_Ionization_Penalty_Charging>
  7.7838

> <r_epik_Ionization_Penalty_Neutral>
  3.7183

> <r_epik_State_Penalty>
 12.8665

> <i_epik_Tot_Q>
0

$$$$
5-chloro-~{N}2-[2-isopropoxy-5-methyl-4-(4-piperidyl)phenyl]-~{N}4-(2-isopropylsulfonylphenyl)pyrimidine-2,4-diamine
                    3D
 Structure written by MMmdl.
 74 77  0  0  1  0            999 V2000
    3.2110   -2.0865   -1.5677 C   0  0  0  0  0  0
    3.3564   -1.5505   -0.1814 C   0  0  0  0  0  0
    4.6081   -1.1067    0.2454 C   0  0  0  0  0  0
    4.7664   -0.6020    1.5361 C   0  0  0  0  0  0
    3.6730   -0.5409    2.4000 C   0  0  0  0  0  0
    2.4213   -0.9846    1.9732 C   0  0  0  0  0  0
    2.2630   -1.4893    0.6826 C   0  0  0  0  0  0
    0.8893   -1.9668    0.2401 C   0  0  0  0  0  0
   -0.2434   -1.1252    0.8493 C   0  0  0  0  0  0
   -1.6120   -1.6580    0.4242 C   0  0  0  0  0  0
   -1.7679   -3.0713    0.7694 N   0  0  0  0  0  0
   -0.7402   -3.8953    0.1323 C   0  0  0  0  0  0
    0.6651   -3.4564    0.5448 C   0  0  0  0  0  0
    3.8070   -0.0511    3.6648 O   0  0  0  0  0  0
    3.4862   -0.9335    4.7381 C   0  0  0  0  0  0
    4.7147   -1.1210    5.6142 C   0  0  0  0  0  0
    2.3129   -0.3633    5.5195 C   0  0  0  0  0  0
    6.0390   -0.1564    1.9550 N   0  0  0  0  0  0
    7.3461   -0.5451    1.6072 C   0  0  0  0  0  0
    8.3513    0.1108    2.2179 N   0  0  0  0  0  0
    9.5902   -0.2866    1.8610 C   0  0  0  0  0  0
    9.8400   -1.2863    0.9431 C   0  0  0  0  0  0
    8.7246   -1.8803    0.3889 C   0  0  0  0  0  0
    7.4582   -1.5334    0.6992 N   0  0  0  0  0  0
    8.9040   -2.9151   -0.5617 N   0  0  0  0  0  0
    8.1312   -4.0386   -0.8969 C   0  0  0  0  0  0
    7.3472   -4.6369    0.0897 C   0  0  0  0  0  0
    6.5720   -5.7548   -0.2182 C   0  0  0  0  0  0
    6.5806   -6.2744   -1.5127 C   0  0  0  0  0  0
    7.3645   -5.6761   -2.4991 C   0  0  0  0  0  0
    8.1398   -4.5583   -2.1913 C   0  0  0  0  0  0
    9.1121   -3.8379   -3.4568 S   0  0  0  0  0  0
   10.4266   -3.5574   -2.9009 O   0  0  0  0  0  0
    8.9895   -4.6487   -4.6586 O   0  0  0  0  0  0
    8.3135   -2.2857   -3.7909 C   0  0  0  0  0  0
    6.8822   -2.5211   -4.2453 C   0  0  0  0  0  0
    9.1064   -1.5014   -4.8239 C   0  0  0  0  0  0
   11.4533   -1.7221    0.5534 Cl  0  0  0  0  0  0
    4.1838   -2.0478   -2.0797 H   0  0  0  0  0  0
    2.4808   -1.4780   -2.1214 H   0  0  0  0  0  0
    2.8612   -3.1284   -1.5231 H   0  0  0  0  0  0
    5.4598   -1.1547   -0.4297 H   0  0  0  0  0  0
    1.5708   -0.9356    2.6492 H   0  0  0  0  0  0
    0.8758   -1.8297   -0.8512 H   0  0  0  0  0  0
   -0.1767   -1.1603    1.9467 H   0  0  0  0  0  0
   -0.1495   -0.0833    0.5094 H   0  0  0  0  0  0
   -2.4022   -1.0861    0.9327 H   0  0  0  0  0  0
   -1.7250   -1.5511   -0.6648 H   0  0  0  0  0  0
   -1.6860   -3.1936    1.8595 H   0  0  0  0  0  0
   -0.8776   -4.9460    0.4277 H   0  0  0  0  0  0
   -0.8255   -3.8076   -0.9609 H   0  0  0  0  0  0
    1.3995   -4.0588   -0.0100 H   0  0  0  0  0  0
    0.7867   -3.6323    1.6238 H   0  0  0  0  0  0
    3.1996   -1.8976    4.2927 H   0  0  0  0  0  0
    4.4728   -1.8012    6.4442 H   0  0  0  0  0  0
    5.0292   -0.1473    6.0179 H   0  0  0  0  0  0
    5.5308   -1.5501    5.0144 H   0  0  0  0  0  0
    2.0612   -1.0405    6.3490 H   0  0  0  0  0  0
    1.4438   -0.2608    4.8532 H   0  0  0  0  0  0
    2.5852    0.6237    5.9216 H   0  0  0  0  0  0
   10.3514    0.1880    2.3030 H   0  0  0  0  0  0
    9.7945   -2.9205   -1.2074 H   0  0  0  0  0  0
    7.3319   -4.2418    1.1025 H   0  0  0  0  0  0
    5.9627   -6.2213    0.5505 H   0  0  0  0  0  0
    5.9785   -7.1461   -1.7519 H   0  0  0  0  0  0
    7.3637   -6.0907   -3.5038 H   0  0  0  0  0  0
    8.1989   -1.5677   -2.9655 H   0  0  0  0  0  0
    6.3984   -1.5544   -4.4490 H   0  0  0  0  0  0
    6.3286   -3.0488   -3.4548 H   0  0  0  0  0  0
    6.8838   -3.1304   -5.1612 H   0  0  0  0  0  0
    8.6031   -0.5436   -5.0225 H   0  0  0  0  0  0
    9.1699   -2.0824   -5.7558 H   0  0  0  0  0  0
   10.1197   -1.3107   -4.4409 H   0  0  0  0  0  0
    8.1279    0.9041    2.9464 H   0  0  0  0  0  0
  1  2  1  0  0  0
  1 39  1  0  0  0
  1 40  1  0  0  0
  1 41  1  0  0  0
  2  7  2  0  0  0
  2  3  1  0  0  0
  3  4  2  0  0  0
  3 42  1  0  0  0
  4  5  1  0  0  0
  4 18  1  0  0  0
  5  6  2  0  0  0
  5 14  1  0  0  0
  6  7  1  0  0  0
  6 43  1  0  0  0
  7  8  1  0  0  0
  8 13  1  0  0  0
  8  9  1  0  0  0
  8 44  1  0  0  0
  9 10  1  0  0  0
  9 45  1  0  0  0
  9 46  1  0  0  0
 10 11  1  0  0  0
 10 47  1  0  0  0
 10 48  1  0  0  0
 11 12  1  0  0  0
 11 49  1  0  0  0
 12 13  1  0  0  0
 12 50  1  0  0  0
 12 51  1  0  0  0
 13 52  1  0  0  0
 13 53  1  0  0  0
 14 15  1  0  0  0
 15 16  1  0  0  0
 15 17  1  0  0  0
 15 54  1  0  0  0
 16 55  1  0  0  0
 16 56  1  0  0  0
 16 57  1  0  0  0
 17 58  1  0  0  0
 17 59  1  0  0  0
 17 60  1  0  0  0
 18 19  2  0  0  0
 19 24  1  0  0  0
 19 20  1  0  0  0
 20 21  1  0  0  0
 20 74  1  0  0  0
 21 22  2  0  0  0
 21 61  1  0  0  0
 22 38  1  0  0  0
 22 23  1  0  0  0
 23 25  1  0  0  0
 23 24  2  0  0  0
 25 26  1  0  0  0
 25 62  1  0  0  0
 26 31  2  0  0  0
 26 27  1  0  0  0
 27 28  2  0  0  0
 27 63  1  0  0  0
 28 29  1  0  0  0
 28 64  1  0  0  0
 29 30  2  0  0  0
 29 65  1  0  0  0
 30 31  1  0  0  0
 30 66  1  0  0  0
 31 32  1  0  0  0
 32 33  2  0  0  0
 32 34  2  0  0  0
 32 35  1  0  0  0
 35 36  1  0  0  0
 35 37  1  0  0  0
 35 67  1  0  0  0
 36 68  1  0  0  0
 36 69  1  0  0  0
 36 70  1  0  0  0
 37 71  1  0  0  0
 37 72  1  0  0  0
 37 73  1  0  0  0
M  END
> <s_m_source_file>
/Users/andrea/Development/mcce-charges/epik_inhibitors/output/Ceritinib/Ceritinib-input.mol2

> <i_m_source_file_index>
1

> <r_lp_tautomer_probability>
5.30999407234317e-07

> <r_epik_Ionization_Penalty>
 11.5021

> <r_epik_Ionization_Penalty_Charging>
  7.7838

> <r_epik_Ionization_Penalty_Neutral>
  3.7183

> <r_epik_State_Penalty>
 12.8665

> <i_epik_Tot_Q>
0

$$$$
5-chloro-~{N}2-[2-isopropoxy-5-methyl-4-(4-piperidyl)phenyl]-~{N}4-(2-isopropylsulfonylphenyl)pyrimidine-2,4-diamine
                    3D
 Structure written by MMmdl.
 75 78  0  0  1  0            999 V2000
    3.2110   -2.0865   -1.5677 C   0  0  0  0  0  0
    3.3564   -1.5505   -0.1814 C   0  0  0  0  0  0
    4.6081   -1.1067    0.2454 C   0  0  0  0  0  0
    4.7664   -0.6020    1.5361 C   0  0  0  0  0  0
    3.6730   -0.5409    2.4000 C   0  0  0  0  0  0
    2.4213   -0.9846    1.9732 C   0  0  0  0  0  0
    2.2630   -1.4893    0.6826 C   0  0  0  0  0  0
    0.8893   -1.9668    0.2401 C   0  0  0  0  0  0
   -0.2434   -1.1252    0.8493 C   0  0  0  0  0  0
   -1.6120   -1.6580    0.4242 C   0  0  0  0  0  0
   -1.7679   -3.0713    0.7694 N   0  3  0  0  0  0
   -0.7402   -3.8953    0.1323 C   0  0  0  0  0  0
    0.6651   -3.4564    0.5448 C   0  0  0  0  0  0
    3.8070   -0.0511    3.6648 O   0  0  0  0  0  0
    3.4862   -0.9335    4.7381 C   0  0  0  0  0  0
    4.7147   -1.1210    5.6142 C   0  0  0  0  0  0
    2.3129   -0.3633    5.5195 C   0  0  0  0  0  0
    6.0390   -0.1564    1.9550 N   0  0  0  0  0  0
    7.3461   -0.5451    1.6072 C   0  0  0  0  0  0
    8.3513    0.1108    2.2179 N   0  0  0  0  0  0
    9.5902   -0.2866    1.8610 C   0  0  0  0  0  0
    9.8400   -1.2863    0.9431 C   0  0  0  0  0  0
    8.7246   -1.8803    0.3889 C   0  0  0  0  0  0
    7.4582   -1.5334    0.6992 N   0  0  0  0  0  0
    8.9040   -2.9151   -0.5617 N   0  0  0  0  0  0
    8.1312   -4.0386   -0.8969 C   0  0  0  0  0  0
    7.3472   -4.6369    0.0897 C   0  0  0  0  0  0
    6.5720   -5.7548   -0.2182 C   0  0  0  0  0  0
    6.5806   -6.2744   -1.5127 C   0  0  0  0  0  0
    7.3645   -5.6761   -2.4991 C   0  0  0  0  0  0
    8.1398   -4.5583   -2.1913 C   0  0  0  0  0  0
    9.1121   -3.8379   -3.4568 S   0  0  0  0  0  0
   10.4266   -3.5574   -2.9009 O   0  0  0  0  0  0
    8.9895   -4.6487   -4.6586 O   0  0  0  0  0  0
    8.3135   -2.2857   -3.7909 C   0  0  0  0  0  0
    6.8822   -2.5211   -4.2453 C   0  0  0  0  0  0
    9.1064   -1.5014   -4.8239 C   0  0  0  0  0  0
   11.4533   -1.7221    0.5534 Cl  0  0  0  0  0  0
    4.1838   -2.0478   -2.0797 H   0  0  0  0  0  0
    2.4808   -1.4780   -2.1214 H   0  0  0  0  0  0
    2.8612   -3.1284   -1.5231 H   0  0  0  0  0  0
    5.4598   -1.1547   -0.4297 H   0  0  0  0  0  0
    1.5708   -0.9356    2.6492 H   0  0  0  0  0  0
    0.8758   -1.8297   -0.8512 H   0  0  0  0  0  0
   -0.1767   -1.1603    1.9467 H   0  0  0  0  0  0
   -0.1495   -0.0833    0.5094 H   0  0  0  0  0  0
   -2.4022   -1.0861    0.9327 H   0  0  0  0  0  0
   -1.7250   -1.5511   -0.6648 H   0  0  0  0  0  0
   -1.6860   -3.1936    1.8595 H   0  0  0  0  0  0
   -0.8776   -4.9460    0.4277 H   0  0  0  0  0  0
   -0.8255   -3.8076   -0.9609 H   0  0  0  0  0  0
    1.3995   -4.0588   -0.0100 H   0  0  0  0  0  0
    0.7867   -3.6323    1.6238 H   0  0  0  0  0  0
    3.1996   -1.8976    4.2927 H   0  0  0  0  0  0
    4.4728   -1.8012    6.4442 H   0  0  0  0  0  0
    5.0292   -0.1473    6.0179 H   0  0  0  0  0  0
    5.5308   -1.5501    5.0144 H   0  0  0  0  0  0
    2.0612   -1.0405    6.3490 H   0  0  0  0  0  0
    1.4438   -0.2608    4.8532 H   0  0  0  0  0  0
    2.5852    0.6237    5.9216 H   0  0  0  0  0  0
   10.3514    0.1880    2.3030 H   0  0  0  0  0  0
    9.7945   -2.9205   -1.2074 H   0  0  0  0  0  0
    7.3319   -4.2418    1.1025 H   0  0  0  0  0  0
    5.9627   -6.2213    0.5505 H   0  0  0  0  0  0
    5.9785   -7.1461   -1.7519 H   0  0  0  0  0  0
    7.3637   -6.0907   -3.5038 H   0  0  0  0  0  0
    8.1989   -1.5677   -2.9655 H   0  0  0  0  0  0
    6.3984   -1.5544   -4.4490 H   0  0  0  0  0  0
    6.3286   -3.0488   -3.4548 H   0  0  0  0  0  0
    6.8838   -3.1304   -5.1612 H   0  0  0  0  0  0
    8.6031   -0.5436   -5.0225 H   0  0  0  0  0  0
    9.1699   -2.0824   -5.7558 H   0  0  0  0  0  0
   10.1197   -1.3107   -4.4409 H   0  0  0  0  0  0
   -2.7544   -3.4240    0.4340 H   0  0  0  0  0  0
    6.6133   -2.0490    0.2193 H   0  0  0  0  0  0
  1  2  1  0  0  0
  1 39  1  0  0  0
  1 40  1  0  0  0
  1 41  1  0  0  0
  2  7  2  0  0  0
  2  3  1  0  0  0
  3  4  2  0  0  0
  3 42  1  0  0  0
  4  5  1  0  0  0
  4 18  1  0  0  0
  5  6  2  0  0  0
  5 14  1  0  0  0
  6  7  1  0  0  0
  6 43  1  0  0  0
  7  8  1  0  0  0
  8 13  1  0  0  0
  8  9  1  0  0  0
  8 44  1  0  0  0
  9 10  1  0  0  0
  9 45  1  0  0  0
  9 46  1  0  0  0
 10 11  1  0  0  0
 10 47  1  0  0  0
 10 48  1  0  0  0
 11 12  1  0  0  0
 11 49  1  0  0  0
 11 74  1  0  0  0
 12 13  1  0  0  0
 12 50  1  0  0  0
 12 51  1  0  0  0
 13 52  1  0  0  0
 13 53  1  0  0  0
 14 15  1  0  0  0
 15 16  1  0  0  0
 15 17  1  0  0  0
 15 54  1  0  0  0
 16 55  1  0  0  0
 16 56  1  0  0  0
 16 57  1  0  0  0
 17 58  1  0  0  0
 17 59  1  0  0  0
 17 60  1  0  0  0
 18 19  2  0  0  0
 19 24  1  0  0  0
 19 20  1  0  0  0
 20 21  2  0  0  0
 21 22  1  0  0  0
 21 61  1  0  0  0
 22 38  1  0  0  0
 22 23  2  0  0  0
 23 25  1  0  0  0
 23 24  1  0  0  0
 24 75  1  0  0  0
 25 26  1  0  0  0
 25 62  1  0  0  0
 26 31  2  0  0  0
 26 27  1  0  0  0
 27 28  2  0  0  0
 27 63  1  0  0  0
 28 29  1  0  0  0
 28 64  1  0  0  0
 29 30  2  0  0  0
 29 65  1  0  0  0
 30 31  1  0  0  0
 30 66  1  0  0  0
 31 32  1  0  0  0
 32 33  2  0  0  0
 32 34  2  0  0  0
 32 35  1  0  0  0
 35 36  1  0  0  0
 35 37  1  0  0  0
 35 67  1  0  0  0
 36 68  1  0  0  0
 36 69  1  0  0  0
 36 70  1  0  0  0
 37 71  1  0  0  0
 37 72  1  0  0  0
 37 73  1  0  0  0
M  CHG  1  11   1
M  END
> <s_m_source_file>
/Users/andrea/Development/mcce-charges/epik_inhibitors/output/Ceritinib/Ceritinib-input.mol2

> <i_m_source_file_index>
1

> <r_lp_tautomer_probability>
6.1419931435653e-10

> <r_epik_Ionization_Penalty>
  9.4321

> <r_epik_Ionization_Penalty_Charging>
  9.3700

> <r_epik_Ionization_Penalty_Neutral>
  0.0622

> <r_epik_State_Penalty>
 12.8695

> <i_epik_Tot_Q>
1

$$$$
5-chloro-~{N}2-[2-isopropoxy-5-methyl-4-(4-piperidyl)phenyl]-~{N}4-(2-isopropylsulfonylphenyl)pyrimidine-2,4-diamine
                    3D
 Structure written by MMmdl.
 73 76  0  0  1  0            999 V2000
    3.2115   -2.0848   -1.5694 C   0  0  0  0  0  0
    3.3567   -1.5489   -0.1830 C   0  0  0  0  0  0
    4.6084   -1.1055    0.2442 C   0  0  0  0  0  0
    4.7664   -0.6009    1.5349 C   0  0  0  0  0  0
    3.6728   -0.5396    2.3985 C   0  0  0  0  0  0
    2.4211   -0.9830    1.9713 C   0  0  0  0  0  0
    2.2630   -1.4876    0.6806 C   0  0  0  0  0  0
    0.8893   -1.9647    0.2378 C   0  0  0  0  0  0
   -0.2433   -1.1228    0.8467 C   0  0  0  0  0  0
   -1.6119   -1.6552    0.4212 C   0  0  0  0  0  0
   -1.7683   -3.0685    0.7663 N   0  0  0  0  0  0
   -0.7407   -3.8927    0.1294 C   0  0  0  0  0  0
    0.6646   -3.4542    0.5423 C   0  0  0  0  0  0
    3.8065   -0.0499    3.6634 O   0  0  0  0  0  0
    3.4852   -0.9323    4.7365 C   0  0  0  0  0  0
    4.7135   -1.1201    5.6130 C   0  0  0  0  0  0
    2.3119   -0.3619    5.5177 C   0  0  0  0  0  0
    6.0390   -0.1557    1.9542 N   0  0  0  0  0  0
    7.3461   -0.5446    1.6067 C   0  0  0  0  0  0
    8.3513    0.1108    2.2179 N   0  0  0  0  0  0
    9.5902   -0.2868    1.8612 C   0  0  0  0  0  0
    9.8400   -1.2863    0.9431 C   0  0  0  0  0  0
    8.7246   -1.8802    0.3887 C   0  0  0  0  0  0
    7.4582   -1.5329    0.6987 N   0  5  0  0  0  0
    8.9040   -2.9152   -0.5617 N   0  0  0  0  0  0
    8.1311   -4.0386   -0.8967 C   0  0  0  0  0  0
    7.3471   -4.6367    0.0900 C   0  0  0  0  0  0
    6.5718   -5.7546   -0.2178 C   0  0  0  0  0  0
    6.5804   -6.2745   -1.5122 C   0  0  0  0  0  0
    7.3644   -5.6764   -2.4987 C   0  0  0  0  0  0
    8.1398   -4.5585   -2.1910 C   0  0  0  0  0  0
    9.1123   -3.8385   -3.4566 S   0  0  0  0  0  0
   10.4267   -3.5580   -2.9006 O   0  0  0  0  0  0
    8.9897   -4.6495   -4.6583 O   0  0  0  0  0  0
    8.3138   -2.2863   -3.7910 C   0  0  0  0  0  0
    6.8824   -2.5217   -4.2455 C   0  0  0  0  0  0
    9.1068   -1.5022   -4.8241 C   0  0  0  0  0  0
   11.4533   -1.7221    0.5534 Cl  0  0  0  0  0  0
    4.1844   -2.0464   -2.0812 H   0  0  0  0  0  0
    2.4816   -1.4761   -2.1232 H   0  0  0  0  0  0
    2.8614   -3.1267   -1.5250 H   0  0  0  0  0  0
    5.4602   -1.1537   -0.4307 H   0  0  0  0  0  0
    1.5704   -0.9338    2.6471 H   0  0  0  0  0  0
    0.8762   -1.8275   -0.8535 H   0  0  0  0  0  0
   -0.1770   -1.1580    1.9441 H   0  0  0  0  0  0
   -0.1491   -0.0809    0.5069 H   0  0  0  0  0  0
   -2.4021   -1.0832    0.9295 H   0  0  0  0  0  0
   -1.7246   -1.5482   -0.6678 H   0  0  0  0  0  0
   -0.8783   -4.9434    0.4246 H   0  0  0  0  0  0
   -0.8256   -3.8049   -0.9638 H   0  0  0  0  0  0
    1.3991   -4.0567   -0.0123 H   0  0  0  0  0  0
    0.7859   -3.6303    1.6214 H   0  0  0  0  0  0
    3.1985   -1.8963    4.2910 H   0  0  0  0  0  0
    4.4712   -1.8003    6.4428 H   0  0  0  0  0  0
    5.0281   -0.1465    6.0168 H   0  0  0  0  0  0
    5.5296   -1.5495    5.0134 H   0  0  0  0  0  0
    2.0598   -1.0390    6.3471 H   0  0  0  0  0  0
    1.4429   -0.2591    4.8511 H   0  0  0  0  0  0
    2.5843    0.6250    5.9199 H   0  0  0  0  0  0
    5.8812    0.6463    2.6903 H   0  0  0  0  0  0
   10.3514    0.1876    2.3034 H   0  0  0  0  0  0
    7.3317   -4.2415    1.1027 H   0  0  0  0  0  0
    5.9624   -6.2210    0.5510 H   0  0  0  0  0  0
    5.9783   -7.1461   -1.7513 H   0  0  0  0  0  0
    7.3637   -6.0911   -3.5033 H   0  0  0  0  0  0
    8.1992   -1.5681   -2.9657 H   0  0  0  0  0  0
    6.3988   -1.5550   -4.4493 H   0  0  0  0  0  0
    6.3287   -3.0492   -3.4549 H   0  0  0  0  0  0
    6.8841   -3.1312   -5.1612 H   0  0  0  0  0  0
    8.6036   -0.5444   -5.0229 H   0  0  0  0  0  0
    9.1703   -2.0834   -5.7559 H   0  0  0  0  0  0
   10.1201   -1.3115   -4.4411 H   0  0  0  0  0  0
   -1.6867   -3.1910    1.8564 H   0  0  0  0  0  0
  1  2  1  0  0  0
  1 39  1  0  0  0
  1 40  1  0  0  0
  1 41  1  0  0  0
  2  7  2  0  0  0
  2  3  1  0  0  0
  3  4  2  0  0  0
  3 42  1  0  0  0
  4  5  1  0  0  0
  4 18  1  0  0  0
  5  6  2  0  0  0
  5 14  1  0  0  0
  6  7  1  0  0  0
  6 43  1  0  0  0
  7  8  1  0  0  0
  8 13  1  0  0  0
  8  9  1  0  0  0
  8 44  1  0  0  0
  9 10  1  0  0  0
  9 45  1  0  0  0
  9 46  1  0  0  0
 10 11  1  0  0  0
 10 47  1  0  0  0
 10 48  1  0  0  0
 11 12  1  0  0  0
 11 73  1  0  0  0
 12 13  1  0  0  0
 12 49  1  0  0  0
 12 50  1  0  0  0
 13 51  1  0  0  0
 13 52  1  0  0  0
 14 15  1  0  0  0
 15 16  1  0  0  0
 15 17  1  0  0  0
 15 53  1  0  0  0
 16 54  1  0  0  0
 16 55  1  0  0  0
 16 56  1  0  0  0
 17 57  1  0  0  0
 17 58  1  0  0  0
 17 59  1  0  0  0
 18 19  1  0  0  0
 18 60  1  0  0  0
 19 24  1  0  0  0
 19 20  2  0  0  0
 20 21  1  0  0  0
 21 22  2  0  0  0
 21 61  1  0  0  0
 22 38  1  0  0  0
 22 23  1  0  0  0
 23 25  2  0  0  0
 23 24  1  0  0  0
 25 26  1  0  0  0
 26 31  2  0  0  0
 26 27  1  0  0  0
 27 28  2  0  0  0
 27 62  1  0  0  0
 28 29  1  0  0  0
 28 63  1  0  0  0
 29 30  2  0  0  0
 29 64  1  0  0  0
 30 31  1  0  0  0
 30 65  1  0  0  0
 31 32  1  0  0  0
 32 33  2  0  0  0
 32 34  2  0  0  0
 32 35  1  0  0  0
 35 36  1  0  0  0
 35 37  1  0  0  0
 35 66  1  0  0  0
 36 67  1  0  0  0
 36 68  1  0  0  0
 36 69  1  0  0  0
 37 70  1  0  0  0
 37 71  1  0  0  0
 37 72  1  0  0  0
M  CHG  1  24  -1
M  END
> <s_m_source_file>
/Users/andrea/Development/mcce-charges/epik_inhibitors/output/Ceritinib/Ceritinib-input.mol2

> <i_m_source_file_index>
1

> <r_epik_Ionization_Penalty>
 11.8684

> <r_epik_Ionization_Penalty_Charging>
  8.1058

> <r_epik_Ionization_Penalty_Neutral>
  3.7627

> <r_epik_State_Penalty>
 13.3041

> <i_epik_Tot_Q>
-1

> <s_epik_Chemistry_Notes>
This compound has an imine and may undergo hydrolysis.

$$$$
