@<TRIPOS>MOLECULE
5-chloro-~{N}2-[2-isopropoxy-5-methyl-4-(4-piperidyl)phenyl]-~{N}4-(2-isopropylsulfonylphenyl)pyrimidine-2,4-diamine
   74    77     0     0     0
SMALL
USER_CHARGES

@<TRIPOS>ATOM
      1 C1          3.2107   -2.0875   -1.5667 C.3       1 CER        -0.0559
      2 C2          3.3563   -1.5514   -0.1804 C.ar      1 CER        -0.0633
      3 C3          4.6080   -1.1076    0.2462 C.ar      1 CER        -0.1304
      4 C4          4.7664   -0.6027    1.5368 C.ar      1 CER         0.1578
      5 C5          3.6731   -0.5417    2.4009 C.ar      1 CER         0.0628
      6 C6          2.4214   -0.9856    1.9743 C.ar      1 CER        -0.1400
      7 C7          2.2630   -1.4904    0.6837 C.ar      1 CER        -0.0723
      8 C8          0.8893   -1.9681    0.2415 C.3       1 CER        -0.0181
      9 C9         -0.2434   -1.1266    0.8508 C.3       1 CER        -0.0733
     10 C10        -1.6120   -1.6596    0.4259 C.3       1 CER         0.1608
     11 N1         -1.7677   -3.0729    0.7712 N.3       1 CER        -0.8167
     12 C11        -0.7400   -3.8968    0.1340 C.3       1 CER         0.1608
     13 C12         0.6653   -3.4577    0.5463 C.3       1 CER        -0.0733
     14 O1          3.8072   -0.0518    3.6657 O.3       1 CER        -0.3543
     15 C13         3.4867   -0.9342    4.7390 C.3       1 CER         0.1412
     16 C14         4.7154   -1.1215    5.6150 C.3       1 CER        -0.1094
     17 C15         2.3135   -0.3642    5.5206 C.3       1 CER        -0.1094
     18 N2          6.0390   -0.1569    1.9555 N.pl3     1 CER        -0.7357
     19 C16         7.3461   -0.5454    1.6075 C.ar      1 CER         0.9194
     20 N3          8.3513    0.1108    2.2179 N.ar      1 CER        -0.7408
     21 C17         9.5902   -0.2866    1.8610 C.ar      1 CER         0.4906
     22 C18         9.8400   -1.2863    0.9431 C.ar      1 CER        -0.3347
     23 C19         8.7246   -1.8805    0.3891 C.ar      1 CER         0.7251
     24 N4          7.4582   -1.5337    0.6996 N.ar      1 CER        -0.7900
     25 N5          8.9040   -2.9155   -0.5613 N.pl3     1 CER        -0.7556
     26 C20         8.1313   -4.0392   -0.8960 C.ar      1 CER         0.2944
     27 C21         7.3478   -4.6374    0.0909 C.ar      1 CER        -0.1854
     28 C22         6.5726   -5.7555   -0.2166 C.ar      1 CER        -0.0417
     29 C23         6.5810   -6.2755   -1.5109 C.ar      1 CER        -0.1826
     30 C24         7.3646   -5.6773   -2.4977 C.ar      1 CER        -0.0138
     31 C25         8.1398   -4.5592   -2.1903 C.ar      1 CER        -0.4374
     32 S1          9.1117   -3.8390   -3.4562 S.o2      1 CER         1.3686
     33 O2         10.4262   -3.5581   -2.9006 O.2       1 CER        -0.6590
     34 O3          8.9890   -4.6501   -4.6578 O.2       1 CER        -0.6590
     35 C26         8.3127   -2.2870   -3.7905 C.3       1 CER        -0.2719
     36 C27         6.8813   -2.5228   -4.2446 C.3       1 CER        -0.0753
     37 C28         9.1052   -1.5028   -4.8239 C.3       1 CER        -0.0753
     38 Cl1        11.4533   -1.7221    0.5534 Cl        1 CER        -0.0465
     39 H1          2.9562   -1.2772   -2.2567 H         1 CER         0.0465
     40 H2          4.1396   -2.5600   -1.9027 H         1 CER         0.0465
     41 H3          2.4255   -2.8497   -1.6105 H         1 CER         0.0465
     42 H4          5.4596   -1.1554   -0.4290 H         1 CER         0.1476
     43 H5          1.5710   -0.9367    2.6504 H         1 CER         0.1467
     44 H6          0.8576   -1.8354   -0.8686 H         1 CER         0.0539
     45 H7         -0.1733   -1.1345    1.9472 H         1 CER         0.0512
     46 H8         -0.1446   -0.0790    0.5401 H         1 CER         0.0512
     47 H9         -2.3985   -1.0838    0.9259 H         1 CER         0.0278
     48 H10        -1.7582   -1.5203   -0.6520 H         1 CER         0.0278
     49 H11        -2.6857   -3.3900    0.4584 H         1 CER         0.3610
     50 H12        -0.8946   -4.9425    0.4216 H         1 CER         0.0278
     51 H13        -0.8491   -3.8517   -0.9563 H         1 CER         0.0278
     52 H14         0.8084   -3.6514    1.6184 H         1 CER         0.0512
     53 H15         1.4095   -4.0669    0.0182 H         1 CER         0.0512
     54 H16         3.2013   -1.8943    4.2981 H         1 CER         0.0553
     55 H17         4.5064   -1.7948    6.4518 H         1 CER         0.0460
     56 H18         5.5420   -1.5375    5.0290 H         1 CER         0.0460
     57 H19         5.0651   -0.1633    6.0150 H         1 CER         0.0460
     58 H20         2.0385   -1.0167    6.3549 H         1 CER         0.0460
     59 H21         1.4421   -0.2446    4.8679 H         1 CER         0.0460
     60 H22         2.5487    0.6300    5.9163 H         1 CER         0.0460
     61 H23         6.0009    0.5895    2.6425 H         1 CER         0.4753
     62 H24        10.3954    0.2467    2.3570 H         1 CER         0.0433
     63 H25         9.7571   -2.8210   -1.0999 H         1 CER         0.4763
     64 H26         7.3325   -4.2421    1.1036 H         1 CER         0.1694
     65 H27         5.9636   -6.2220    0.5524 H         1 CER         0.1394
     66 H28         5.9791   -7.1474   -1.7499 H         1 CER         0.1452
     67 H29         7.3637   -6.0921   -3.5023 H         1 CER         0.1666
     68 H30         8.3120   -1.7451   -2.8398 H         1 CER         0.1155
     69 H31         6.3787   -1.5729   -4.4536 H         1 CER         0.0521
     70 H32         6.8460   -3.1355   -5.1521 H         1 CER         0.0521
     71 H33         6.3075   -3.0456   -3.4718 H         1 CER         0.0521
     72 H34         8.6221   -0.5439   -5.0381 H         1 CER         0.0521
     73 H35         9.1951   -2.0582   -5.7639 H         1 CER         0.0521
     74 H36        10.1193   -1.2973   -4.4647 H         1 CER         0.0521
@<TRIPOS>BOND
     1    1    2 1
     2    2    7 ar
     3    2    3 ar
     4    3    4 ar
     5    4    5 ar
     6    5    6 ar
     7    6    7 ar
     8    7    8 1
     9    8   13 1
    10    8    9 1
    11    9   10 1
    12   10   11 1
    13   11   12 1
    14   12   13 1
    15    5   14 1
    16   14   15 1
    17   15   16 1
    18   15   17 1
    19    4   18 1
    20   18   19 1
    21   19   24 ar
    22   19   20 ar
    23   20   21 ar
    24   21   22 ar
    25   22   23 ar
    26   23   24 ar
    27   23   25 1
    28   25   26 1
    29   26   31 ar
    30   26   27 ar
    31   27   28 ar
    32   28   29 ar
    33   29   30 ar
    34   30   31 ar
    35   31   32 1
    36   32   33 2
    37   32   34 2
    38   32   35 1
    39   35   36 1
    40   35   37 1
    41   22   38 1
    42    1   39 1
    43    1   40 1
    44    1   41 1
    45    3   42 1
    46    6   43 1
    47    8   44 1
    48    9   45 1
    49    9   46 1
    50   10   47 1
    51   10   48 1
    52   11   49 1
    53   12   50 1
    54   12   51 1
    55   13   52 1
    56   13   53 1
    57   15   54 1
    58   16   55 1
    59   16   56 1
    60   16   57 1
    61   17   58 1
    62   17   59 1
    63   17   60 1
    64   18   61 1
    65   21   62 1
    66   25   63 1
    67   27   64 1
    68   28   65 1
    69   29   66 1
    70   30   67 1
    71   35   68 1
    72   36   69 1
    73   36   70 1
    74   36   71 1
    75   37   72 1
    76   37   73 1
    77   37   74 1
