@<TRIPOS>MOLECULE
5-chloro-~{N}2-(2-isopropoxy-5-methyl-4-piperidin-1-ium-4-yl-phenyl)-~{N}4-(2-isopropylsulfonylphenyl)pyrimidine-2,4-diamine
   75    78     0     0     0
SMALL
USER_CHARGES

@<TRIPOS>ATOM
      1 C1          3.2107   -2.0875   -1.5667 C.3       1 <0>        -0.0595
      2 C2          3.3563   -1.5514   -0.1804 C.ar      1 <0>        -0.0461
      3 C3          4.6080   -1.1075    0.2462 C.ar      1 <0>        -0.1311
      4 C4          4.7664   -0.6027    1.5368 C.ar      1 <0>         0.2025
      5 C5          3.6731   -0.5417    2.4009 C.ar      1 <0>         0.0612
      6 C6          2.4214   -0.9856    1.9743 C.ar      1 <0>        -0.1349
      7 C7          2.2630   -1.4904    0.6837 C.ar      1 <0>        -0.1309
      8 C8          0.8893   -1.9681    0.2415 C.3       1 <0>        -0.0073
      9 C9         -0.2434   -1.1266    0.8508 C.3       1 <0>        -0.1076
     10 C10        -1.6120   -1.6596    0.4259 C.3       1 <0>         0.1077
     11 N1         -1.7677   -3.0729    0.7712 N.4       1 <0>        -0.7648
     12 C11        -0.7400   -3.8968    0.1340 C.3       1 <0>         0.1077
     13 C12         0.6653   -3.4577    0.5463 C.3       1 <0>        -0.1076
     14 O1          3.8072   -0.0518    3.6657 O.3       1 <0>        -0.3487
     15 C13         3.4867   -0.9342    4.7390 C.3       1 <0>         0.1458
     16 C14         4.7154   -1.1215    5.6150 C.3       1 <0>        -0.1124
     17 C15         2.3135   -0.3642    5.5206 C.3       1 <0>        -0.1124
     18 N2          6.0390   -0.1569    1.9555 N.pl3     1 <0>        -0.7383
     19 C16         7.3461   -0.5454    1.6075 C.ar      1 <0>         0.8940
     20 N3          8.3513    0.1108    2.2179 N.ar      1 <0>        -0.7442
     21 C17         9.5902   -0.2866    1.8610 C.ar      1 <0>         0.4789
     22 C18         9.8400   -1.2863    0.9431 C.ar      1 <0>        -0.3039
     23 C19         8.7246   -1.8805    0.3891 C.ar      1 <0>         0.7096
     24 N4          7.4582   -1.5337    0.6996 N.ar      1 <0>        -0.7401
     25 N5          8.9040   -2.9155   -0.5613 N.pl3     1 <0>        -0.7629
     26 C20         8.1313   -4.0392   -0.8960 C.ar      1 <0>         0.2888
     27 C21         7.3477   -4.6374    0.0909 C.ar      1 <0>        -0.1955
     28 C22         6.5726   -5.7555   -0.2166 C.ar      1 <0>        -0.0374
     29 C23         6.5810   -6.2755   -1.5109 C.ar      1 <0>        -0.1790
     30 C24         7.3646   -5.6773   -2.4977 C.ar      1 <0>        -0.0048
     31 C25         8.1398   -4.5592   -2.1903 C.ar      1 <0>        -0.4275
     32 S1          9.1117   -3.8390   -3.4562 S.o2      1 <0>         1.3674
     33 O2         10.4262   -3.5581   -2.9006 O.2       1 <0>        -0.6563
     34 O3          8.9890   -4.6501   -4.6578 O.2       1 <0>        -0.6563
     35 C26         8.3127   -2.2870   -3.7905 C.3       1 <0>        -0.2707
     36 C27         6.8813   -2.5228   -4.2446 C.3       1 <0>        -0.0769
     37 C28         9.1052   -1.5028   -4.8239 C.3       1 <0>        -0.0769
     38 Cl1        11.4533   -1.7221    0.5534 Cl        1 <0>        -0.0223
     39 H1          4.1834   -2.0487   -2.0788 H         1 <0>         0.0478
     40 H2          2.4803   -1.4791   -2.1203 H         1 <0>         0.0478
     41 H3          2.8611   -3.1295   -1.5220 H         1 <0>         0.0478
     42 H4          5.4596   -1.1554   -0.4290 H         1 <0>         0.1620
     43 H5          1.5710   -0.9367    2.6504 H         1 <0>         0.1297
     44 H6          0.8756   -1.8310   -0.8498 H         1 <0>         0.0700
     45 H7         -0.1766   -1.1616    1.9482 H         1 <0>         0.0921
     46 H8         -0.1498   -0.0847    0.5108 H         1 <0>         0.0921
     47 H9         -2.4022   -1.0878    0.9345 H         1 <0>         0.1049
     48 H10        -1.7252   -1.5527   -0.6630 H         1 <0>         0.1049
     49 H11        -1.6856   -3.1952    1.8613 H         1 <0>         0.4516
     50 H12        -0.8771   -4.9475    0.4294 H         1 <0>         0.1049
     51 H13        -0.8254   -3.8091   -0.9592 H         1 <0>         0.1049
     52 H14         1.3997   -4.0600   -0.0086 H         1 <0>         0.0921
     53 H15         0.7871   -3.6336    1.6253 H         1 <0>         0.0921
     54 H16         3.2001   -1.8984    4.2937 H         1 <0>         0.0321
     55 H17         4.4737   -1.8017    6.4450 H         1 <0>         0.0521
     56 H18         5.0298   -0.1477    6.0186 H         1 <0>         0.0521
     57 H19         5.5315   -1.5506    5.0151 H         1 <0>         0.0521
     58 H20         2.0620   -1.0413    6.3502 H         1 <0>         0.0521
     59 H21         1.4442   -0.2618    4.8544 H         1 <0>         0.0521
     60 H22         2.5857    0.6229    5.9226 H         1 <0>         0.0521
     61 H23         6.1221    0.6503    2.6981 H         1 <0>         0.4811
     62 H24        10.3954    0.2467    2.3569 H         1 <0>         0.0474
     63 H25         9.7944   -2.9209   -1.2072 H         1 <0>         0.4800
     64 H26         7.3325   -4.2421    1.1036 H         1 <0>         0.1483
     65 H27         5.9636   -6.2220    0.5524 H         1 <0>         0.1391
     66 H28         5.9791   -7.1473   -1.7498 H         1 <0>         0.1495
     67 H29         7.3637   -6.0921   -3.5023 H         1 <0>         0.1708
     68 H30         8.1981   -1.5688   -2.9652 H         1 <0>         0.1138
     69 H31         6.3973   -1.5562   -4.4484 H         1 <0>         0.0536
     70 H32         6.3280   -3.0504   -3.4538 H         1 <0>         0.0536
     71 H33         6.8828   -3.1324   -5.1603 H         1 <0>         0.0536
     72 H34         8.6018   -0.5452   -5.0226 H         1 <0>         0.0536
     73 H35         9.1686   -2.0840   -5.7557 H         1 <0>         0.0536
     74 H36        10.1186   -1.3118   -4.4411 H         1 <0>         0.0536
     75 H37        -2.7542   -3.4258    0.4360 H         1 <0>         0.4516
@<TRIPOS>BOND
     1    1    2 1
     2    1   39 1
     3    1   40 1
     4    1   41 1
     5    2    7 ar
     6    2    3 ar
     7    3    4 ar
     8    3   42 1
     9    4    5 ar
    10    4   18 1
    11    5    6 ar
    12    5   14 1
    13    6    7 ar
    14    6   43 1
    15    7    8 1
    16    8   13 1
    17    8    9 1
    18    8   44 1
    19    9   10 1
    20    9   45 1
    21    9   46 1
    22   10   11 1
    23   10   47 1
    24   10   48 1
    25   11   12 1
    26   11   49 1
    27   11   75 1
    28   12   13 1
    29   12   50 1
    30   12   51 1
    31   13   52 1
    32   13   53 1
    33   14   15 1
    34   15   16 1
    35   15   17 1
    36   15   54 1
    37   16   55 1
    38   16   56 1
    39   16   57 1
    40   17   58 1
    41   17   59 1
    42   17   60 1
    43   18   19 1
    44   18   61 1
    45   19   24 ar
    46   19   20 ar
    47   20   21 ar
    48   21   22 ar
    49   21   62 1
    50   22   23 ar
    51   22   38 1
    52   23   24 ar
    53   23   25 1
    54   25   26 1
    55   25   63 1
    56   26   31 ar
    57   26   27 ar
    58   27   28 ar
    59   27   64 1
    60   28   29 ar
    61   28   65 1
    62   29   30 ar
    63   29   66 1
    64   30   31 ar
    65   30   67 1
    66   31   32 1
    67   32   33 2
    68   32   34 2
    69   32   35 1
    70   35   36 1
    71   35   37 1
    72   35   68 1
    73   36   69 1
    74   36   70 1
    75   36   71 1
    76   37   72 1
    77   37   73 1
    78   37   74 1
@<TRIPOS>MOLECULE
5-chloro-~{N}2-[2-isopropoxy-5-methyl-4-(4-piperidyl)phenyl]-~{N}4-(2-isopropylsulfonylphenyl)pyrimidine-2,4-diamine
   74    77     0     0     0
SMALL
USER_CHARGES

@<TRIPOS>ATOM
      1 C1          3.2107   -2.0875   -1.5667 C.3       1 <0>        -0.0558
      2 C2          3.3563   -1.5514   -0.1804 C.ar      1 <0>        -0.0633
      3 C3          4.6080   -1.1075    0.2462 C.ar      1 <0>        -0.1304
      4 C4          4.7664   -0.6027    1.5368 C.ar      1 <0>         0.1580
      5 C5          3.6731   -0.5417    2.4009 C.ar      1 <0>         0.0629
      6 C6          2.4214   -0.9856    1.9743 C.ar      1 <0>        -0.1399
      7 C7          2.2630   -1.4904    0.6837 C.ar      1 <0>        -0.0724
      8 C8          0.8893   -1.9681    0.2415 C.3       1 <0>        -0.0182
      9 C9         -0.2434   -1.1266    0.8508 C.3       1 <0>        -0.0733
     10 C10        -1.6120   -1.6596    0.4259 C.3       1 <0>         0.1608
     11 N1         -1.7677   -3.0729    0.7712 N.3       1 <0>        -0.8167
     12 C11        -0.7400   -3.8968    0.1340 C.3       1 <0>         0.1608
     13 C12         0.6653   -3.4577    0.5463 C.3       1 <0>        -0.0733
     14 O1          3.8072   -0.0518    3.6657 O.3       1 <0>        -0.3544
     15 C13         3.4867   -0.9342    4.7390 C.3       1 <0>         0.1416
     16 C14         4.7154   -1.1215    5.6150 C.3       1 <0>        -0.1095
     17 C15         2.3135   -0.3642    5.5206 C.3       1 <0>        -0.1095
     18 N2          6.0390   -0.1569    1.9555 N.pl3     1 <0>        -0.7358
     19 C16         7.3461   -0.5454    1.6075 C.ar      1 <0>         0.9194
     20 N3          8.3513    0.1108    2.2179 N.ar      1 <0>        -0.7407
     21 C17         9.5902   -0.2866    1.8610 C.ar      1 <0>         0.4906
     22 C18         9.8400   -1.2863    0.9431 C.ar      1 <0>        -0.3344
     23 C19         8.7246   -1.8805    0.3891 C.ar      1 <0>         0.7250
     24 N4          7.4582   -1.5337    0.6996 N.ar      1 <0>        -0.7900
     25 N5          8.9040   -2.9155   -0.5613 N.pl3     1 <0>        -0.7554
     26 C20         8.1313   -4.0392   -0.8960 C.ar      1 <0>         0.2945
     27 C21         7.3477   -4.6374    0.0909 C.ar      1 <0>        -0.1855
     28 C22         6.5726   -5.7555   -0.2166 C.ar      1 <0>        -0.0417
     29 C23         6.5810   -6.2755   -1.5109 C.ar      1 <0>        -0.1826
     30 C24         7.3646   -5.6773   -2.4977 C.ar      1 <0>        -0.0140
     31 C25         8.1398   -4.5592   -2.1903 C.ar      1 <0>        -0.4372
     32 S1          9.1117   -3.8390   -3.4562 S.o2      1 <0>         1.3681
     33 O2         10.4262   -3.5581   -2.9006 O.2       1 <0>        -0.6590
     34 O3          8.9890   -4.6501   -4.6578 O.2       1 <0>        -0.6590
     35 C26         8.3127   -2.2870   -3.7905 C.3       1 <0>        -0.2715
     36 C27         6.8813   -2.5228   -4.2446 C.3       1 <0>        -0.0752
     37 C28         9.1052   -1.5028   -4.8239 C.3       1 <0>        -0.0752
     38 Cl1        11.4533   -1.7221    0.5534 Cl        1 <0>        -0.0466
     39 H1          4.1834   -2.0487   -2.0788 H         1 <0>         0.0465
     40 H2          2.4803   -1.4791   -2.1203 H         1 <0>         0.0465
     41 H3          2.8611   -3.1295   -1.5220 H         1 <0>         0.0465
     42 H4          5.4596   -1.1554   -0.4290 H         1 <0>         0.1476
     43 H5          1.5710   -0.9367    2.6504 H         1 <0>         0.1468
     44 H6          0.8756   -1.8310   -0.8498 H         1 <0>         0.0539
     45 H7         -0.1766   -1.1616    1.9482 H         1 <0>         0.0512
     46 H8         -0.1498   -0.0847    0.5108 H         1 <0>         0.0512
     47 H9         -2.4022   -1.0878    0.9345 H         1 <0>         0.0279
     48 H10        -1.7252   -1.5527   -0.6630 H         1 <0>         0.0279
     49 H11        -1.6856   -3.1952    1.8613 H         1 <0>         0.3609
     50 H12        -0.8771   -4.9475    0.4294 H         1 <0>         0.0279
     51 H13        -0.8254   -3.8091   -0.9592 H         1 <0>         0.0279
     52 H14         1.3997   -4.0600   -0.0086 H         1 <0>         0.0512
     53 H15         0.7871   -3.6336    1.6253 H         1 <0>         0.0512
     54 H16         3.2001   -1.8984    4.2937 H         1 <0>         0.0550
     55 H17         4.4737   -1.8017    6.4450 H         1 <0>         0.0460
     56 H18         5.0298   -0.1477    6.0186 H         1 <0>         0.0460
     57 H19         5.5315   -1.5506    5.0151 H         1 <0>         0.0460
     58 H20         2.0620   -1.0413    6.3502 H         1 <0>         0.0460
     59 H21         1.4442   -0.2618    4.8544 H         1 <0>         0.0460
     60 H22         2.5857    0.6229    5.9226 H         1 <0>         0.0460
     61 H23         6.1221    0.6503    2.6981 H         1 <0>         0.4753
     62 H24        10.3954    0.2467    2.3569 H         1 <0>         0.0434
     63 H25         9.7944   -2.9209   -1.2072 H         1 <0>         0.4761
     64 H26         7.3325   -4.2421    1.1036 H         1 <0>         0.1694
     65 H27         5.9636   -6.2220    0.5524 H         1 <0>         0.1394
     66 H28         5.9791   -7.1473   -1.7498 H         1 <0>         0.1452
     67 H29         7.3637   -6.0921   -3.5023 H         1 <0>         0.1666
     68 H30         8.1981   -1.5688   -2.9652 H         1 <0>         0.1155
     69 H31         6.3973   -1.5562   -4.4484 H         1 <0>         0.0520
     70 H32         6.3280   -3.0504   -3.4538 H         1 <0>         0.0520
     71 H33         6.8828   -3.1324   -5.1603 H         1 <0>         0.0520
     72 H34         8.6018   -0.5452   -5.0226 H         1 <0>         0.0520
     73 H35         9.1686   -2.0840   -5.7557 H         1 <0>         0.0520
     74 H36        10.1186   -1.3118   -4.4411 H         1 <0>         0.0520
@<TRIPOS>BOND
     1    1    2 1
     2    1   39 1
     3    1   40 1
     4    1   41 1
     5    2    7 ar
     6    2    3 ar
     7    3    4 ar
     8    3   42 1
     9    4    5 ar
    10    4   18 1
    11    5    6 ar
    12    5   14 1
    13    6    7 ar
    14    6   43 1
    15    7    8 1
    16    8   13 1
    17    8    9 1
    18    8   44 1
    19    9   10 1
    20    9   45 1
    21    9   46 1
    22   10   11 1
    23   10   47 1
    24   10   48 1
    25   11   12 1
    26   11   49 1
    27   12   13 1
    28   12   50 1
    29   12   51 1
    30   13   52 1
    31   13   53 1
    32   14   15 1
    33   15   16 1
    34   15   17 1
    35   15   54 1
    36   16   55 1
    37   16   56 1
    38   16   57 1
    39   17   58 1
    40   17   59 1
    41   17   60 1
    42   18   19 1
    43   18   61 1
    44   19   24 ar
    45   19   20 ar
    46   20   21 ar
    47   21   22 ar
    48   21   62 1
    49   22   23 ar
    50   22   38 1
    51   23   24 ar
    52   23   25 1
    53   25   26 1
    54   25   63 1
    55   26   31 ar
    56   26   27 ar
    57   27   28 ar
    58   27   64 1
    59   28   29 ar
    60   28   65 1
    61   29   30 ar
    62   29   66 1
    63   30   31 ar
    64   30   67 1
    65   31   32 1
    66   32   33 2
    67   32   34 2
    68   32   35 1
    69   35   36 1
    70   35   37 1
    71   35   68 1
    72   36   69 1
    73   36   70 1
    74   36   71 1
    75   37   72 1
    76   37   73 1
    77   37   74 1
@<TRIPOS>MOLECULE
5-chloro-~{N}2-(2-isopropoxy-5-methyl-4-piperidin-1-ium-4-yl-phenyl)-~{N}4-(2-isopropylsulfonylphenyl)pyrimidin-1-ium-2,4-diamine
   76    79     0     0     0
SMALL
USER_CHARGES

@<TRIPOS>ATOM
      1 C1          3.2107   -2.0875   -1.5667 C.3       1 <0>        -0.0689
      2 C2          3.3563   -1.5514   -0.1804 C.ar      1 <0>        -0.0504
      3 C3          4.6080   -1.1075    0.2462 C.ar      1 <0>        -0.1430
      4 C4          4.7664   -0.6027    1.5368 C.ar      1 <0>         0.0855
      5 C5          3.6731   -0.5417    2.4009 C.ar      1 <0>         0.1291
      6 C6          2.4214   -0.9856    1.9743 C.ar      1 <0>        -0.1485
      7 C7          2.2630   -1.4904    0.6837 C.ar      1 <0>        -0.0661
      8 C8          0.8893   -1.9681    0.2415 C.3       1 <0>        -0.0247
      9 C9         -0.2434   -1.1266    0.8508 C.3       1 <0>        -0.1071
     10 C10        -1.6120   -1.6596    0.4259 C.3       1 <0>         0.1055
     11 N1         -1.7677   -3.0729    0.7712 N.4       1 <0>        -0.7631
     12 C11        -0.7400   -3.8968    0.1340 C.3       1 <0>         0.1055
     13 C12         0.6653   -3.4577    0.5463 C.3       1 <0>        -0.1071
     14 O1          3.8072   -0.0518    3.6657 O.3       1 <0>        -0.3489
     15 C13         3.4867   -0.9342    4.7390 C.3       1 <0>         0.1451
     16 C14         4.7154   -1.1215    5.6150 C.3       1 <0>        -0.1119
     17 C15         2.3135   -0.3642    5.5206 C.3       1 <0>        -0.1119
     18 N2          6.0390   -0.1569    1.9555 N.pl3     1 <0>        -0.7101
     19 C16         7.3461   -0.5454    1.6075 C.ar      1 <0>         0.8472
     20 N3          8.3513    0.1108    2.2179 N.ar      1 <0>        -0.3568
     21 C17         9.5902   -0.2866    1.8610 C.ar      1 <0>         0.0277
     22 C18         9.8400   -1.2863    0.9431 C.ar      1 <0>        -0.2038
     23 C19         8.7246   -1.8805    0.3891 C.ar      1 <0>         0.7922
     24 N4          7.4582   -1.5337    0.6996 N.ar      1 <0>        -0.7815
     25 N5          8.9040   -2.9155   -0.5613 N.pl3     1 <0>        -0.6769
     26 C20         8.1313   -4.0392   -0.8960 C.ar      1 <0>         0.2229
     27 C21         7.3477   -4.6374    0.0909 C.ar      1 <0>        -0.1573
     28 C22         6.5726   -5.7555   -0.2166 C.ar      1 <0>        -0.0512
     29 C23         6.5810   -6.2755   -1.5109 C.ar      1 <0>        -0.1329
     30 C24         7.3646   -5.6773   -2.4977 C.ar      1 <0>        -0.0080
     31 C25         8.1398   -4.5592   -2.1903 C.ar      1 <0>        -0.3770
     32 S1          9.1117   -3.8390   -3.4562 S.o2      1 <0>         1.3519
     33 O2         10.4262   -3.5581   -2.9006 O.2       1 <0>        -0.6366
     34 O3          8.9890   -4.6501   -4.6578 O.2       1 <0>        -0.6366
     35 C26         8.3127   -2.2870   -3.7905 C.3       1 <0>        -0.2708
     36 C27         6.8813   -2.5228   -4.2446 C.3       1 <0>        -0.0829
     37 C28         9.1052   -1.5028   -4.8239 C.3       1 <0>        -0.0829
     38 Cl1        11.4533   -1.7221    0.5534 Cl        1 <0>         0.0325
     39 H1          4.1834   -2.0487   -2.0788 H         1 <0>         0.0602
     40 H2          2.4803   -1.4791   -2.1203 H         1 <0>         0.0602
     41 H3          2.8611   -3.1295   -1.5220 H         1 <0>         0.0602
     42 H4          5.4596   -1.1554   -0.4290 H         1 <0>         0.1516
     43 H5          1.5710   -0.9367    2.6504 H         1 <0>         0.1533
     44 H6          0.8756   -1.8310   -0.8498 H         1 <0>         0.0789
     45 H7         -0.1766   -1.1616    1.9482 H         1 <0>         0.0922
     46 H8         -0.1498   -0.0847    0.5108 H         1 <0>         0.0922
     47 H9         -2.4022   -1.0878    0.9345 H         1 <0>         0.1133
     48 H10        -1.7252   -1.5527   -0.6630 H         1 <0>         0.1133
     49 H11        -1.6856   -3.1952    1.8613 H         1 <0>         0.4598
     50 H12        -0.8771   -4.9475    0.4294 H         1 <0>         0.1133
     51 H13        -0.8254   -3.8091   -0.9592 H         1 <0>         0.1133
     52 H14         1.3997   -4.0600   -0.0086 H         1 <0>         0.0922
     53 H15         0.7871   -3.6336    1.6253 H         1 <0>         0.0922
     54 H16         3.2001   -1.8984    4.2937 H         1 <0>         0.0460
     55 H17         4.4737   -1.8017    6.4450 H         1 <0>         0.0565
     56 H18         5.0298   -0.1477    6.0186 H         1 <0>         0.0565
     57 H19         5.5315   -1.5506    5.0151 H         1 <0>         0.0565
     58 H20         2.0620   -1.0413    6.3502 H         1 <0>         0.0565
     59 H21         1.4442   -0.2618    4.8544 H         1 <0>         0.0565
     60 H22         2.5857    0.6229    5.9226 H         1 <0>         0.0565
     61 H23         6.1221    0.6503    2.6981 H         1 <0>         0.5097
     62 H24        10.3954    0.2467    2.3569 H         1 <0>         0.2151
     63 H25         9.7944   -2.9209   -1.2072 H         1 <0>         0.4979
     64 H26         7.3325   -4.2421    1.1036 H         1 <0>         0.1568
     65 H27         5.9636   -6.2220    0.5524 H         1 <0>         0.1555
     66 H28         5.9791   -7.1473   -1.7498 H         1 <0>         0.1693
     67 H29         7.3637   -6.0921   -3.5023 H         1 <0>         0.1872
     68 H30         8.1981   -1.5688   -2.9652 H         1 <0>         0.0861
     69 H31         6.3973   -1.5562   -4.4484 H         1 <0>         0.0613
     70 H32         6.3280   -3.0504   -3.4538 H         1 <0>         0.0613
     71 H33         6.8828   -3.1324   -5.1603 H         1 <0>         0.0613
     72 H34         8.6018   -0.5452   -5.0226 H         1 <0>         0.0613
     73 H35         9.1686   -2.0840   -5.7557 H         1 <0>         0.0613
     74 H36        10.1186   -1.3118   -4.4411 H         1 <0>         0.0613
     75 H37        -2.7542   -3.4258    0.4360 H         1 <0>         0.4598
     76 H38         8.1279    0.9044    2.9461 H         1 <0>         0.3357
@<TRIPOS>BOND
     1    1    2 1
     2    1   39 1
     3    1   40 1
     4    1   41 1
     5    2    7 ar
     6    2    3 ar
     7    3    4 ar
     8    3   42 1
     9    4    5 ar
    10    4   18 1
    11    5    6 ar
    12    5   14 1
    13    6    7 ar
    14    6   43 1
    15    7    8 1
    16    8   13 1
    17    8    9 1
    18    8   44 1
    19    9   10 1
    20    9   45 1
    21    9   46 1
    22   10   11 1
    23   10   47 1
    24   10   48 1
    25   11   12 1
    26   11   49 1
    27   11   75 1
    28   12   13 1
    29   12   50 1
    30   12   51 1
    31   13   52 1
    32   13   53 1
    33   14   15 1
    34   15   16 1
    35   15   17 1
    36   15   54 1
    37   16   55 1
    38   16   56 1
    39   16   57 1
    40   17   58 1
    41   17   59 1
    42   17   60 1
    43   18   19 1
    44   18   61 1
    45   19   24 ar
    46   19   20 ar
    47   20   21 ar
    48   20   76 1
    49   21   22 ar
    50   21   62 1
    51   22   23 ar
    52   22   38 1
    53   23   24 ar
    54   23   25 1
    55   25   26 1
    56   25   63 1
    57   26   31 ar
    58   26   27 ar
    59   27   28 ar
    60   27   64 1
    61   28   29 ar
    62   28   65 1
    63   29   30 ar
    64   29   66 1
    65   30   31 ar
    66   30   67 1
    67   31   32 1
    68   32   33 2
    69   32   34 2
    70   32   35 1
    71   35   36 1
    72   35   37 1
    73   35   68 1
    74   36   69 1
    75   36   70 1
    76   36   71 1
    77   37   72 1
    78   37   73 1
    79   37   74 1
