@<TRIPOS>MOLECULE
5-fluoro-3-phenyl-2-[(1~{S})-1-(1~{H}-purin-6-ylamino)propyl]quinazolin-4-one
49   53    1
SMALL
USER_CHARGES


@<TRIPOS>ATOM
      1 C1         -5.2180   -5.1996    0.6441 C.3       1 IDE        -0.1004 
      2 C2         -3.9438   -5.9721    0.3330 C.3       1 IDE        -0.1043 
      3 C3         -3.5422   -5.8650   -1.1344 C.3       1 IDE         0.2145 
      4 H1         -4.3471   -6.3375   -1.7166 H         1 IDE         0.0663 
      5 C4         -3.2684   -4.4243   -1.5152 C.ar      1 IDE         0.4962 
      6 N1         -2.3191   -3.8360   -0.8542 N.2       1 IDE        -0.6351 
      7 C5         -2.0751   -2.4788   -1.0864 C.ar      1 IDE         0.2121 
      8 C6         -2.8340   -1.7334   -1.9885 C.ar      1 IDE        -0.2295 
      9 C7         -2.5800   -0.3700   -2.1802 C.ar      1 IDE         0.2029 
     10 C8         -1.5594    0.2518   -1.4623 C.ar      1 IDE        -0.1916 
     11 C9         -0.7952   -0.4837   -0.5597 C.ar      1 IDE        -0.0679 
     12 C10        -1.0530   -1.8424   -0.3725 C.ar      1 IDE        -0.1319 
     13 F1         -3.3006    0.3611   -3.0422 F         1 IDE        -0.1096 
     14 C11        -3.8939   -2.4176   -2.7585 C.ar      1 IDE         0.7171 
     15 O1         -4.5129   -1.7696   -3.5995 O.2       1 IDE        -0.5774 
     16 N2         -4.0507   -3.7930   -2.4853 N.pl3     1 IDE        -0.3243 
     17 C12        -5.0119   -4.5105   -3.2769 C.ar      1 IDE         0.0268 
     18 C13        -6.3595   -4.1535   -3.2293 C.ar      1 IDE        -0.1226 
     19 C14        -7.2927   -4.8487   -3.9984 C.ar      1 IDE        -0.1232 
     20 C15        -6.8784   -5.9009   -4.8150 C.ar      1 IDE        -0.1196 
     21 C16        -5.5308   -6.2580   -4.8625 C.ar      1 IDE        -0.1232 
     22 C17        -4.5976   -5.5628   -4.0934 C.ar      1 IDE        -0.1226 
     23 N3         -2.3142   -6.5528   -1.4252 N.pl3     1 IDE        -0.7695 
     24 C18        -2.2705   -7.8323   -1.7974 C.ar      1 IDE         0.4545 
     25 C19        -1.1114   -8.4938   -2.0754 C.ar      1 IDE        -0.2068 
     26 C20        -1.1078   -9.9051   -2.4826 C.ar      1 IDE         0.5739 
     27 N4          0.1130  -10.2980   -2.6883 N.pl3     1 IDE        -0.6486 
     28 C21         0.8509   -9.1522   -2.4133 C.ar      1 IDE         0.5270 
     29 N5          0.1922   -8.0840   -2.0554 N.2       1 IDE        -0.5856 
     30 N6         -2.2642  -10.6271   -2.6042 N.ar      1 IDE        -0.5883 
     31 C22        -3.3450   -9.9593   -2.3304 C.ar      1 IDE         0.5748 
     32 N7         -3.4156   -8.6416   -1.9447 N.ar      1 IDE        -0.7090 
     33 H2         -5.4621   -5.3095    1.7110 H         1 IDE         0.0470 
     34 H3         -6.0447   -5.5958    0.0361 H         1 IDE         0.0470 
     35 H4         -5.0679   -4.1353    0.4100 H         1 IDE         0.0470 
     36 H5         -3.1171   -5.5759    0.9410 H         1 IDE         0.0611 
     37 H6         -4.0938   -7.0364    0.5671 H         1 IDE         0.0611 
     38 H7         -1.3617    1.3100   -1.6059 H         1 IDE         0.1584 
     39 H8          0.0023   -0.0008   -0.0026 H         1 IDE         0.1480 
     40 H9         -0.4468   -2.4048    0.3338 H         1 IDE         0.1670 
     41 H10        -6.6935   -3.3344   -2.5974 H         1 IDE         0.1465 
     42 H11        -8.3420   -4.5709   -3.9621 H         1 IDE         0.1416 
     43 H12        -7.6051   -6.4425   -5.4134 H         1 IDE         0.1410 
     44 H13        -5.2087   -7.0771   -5.4987 H         1 IDE         0.1416 
     45 H14        -3.5499   -5.8495   -4.1396 H         1 IDE         0.1465 
     46 H15        -1.3541   -6.0220   -1.3445 H         1 IDE         0.4986 
     47 H16         1.9481   -9.1667   -2.5001 H         1 IDE         0.0603 
     48 H17        -4.3338  -10.4397   -2.3949 H         1 IDE         0.0592 
     49 H49         0.3121  -11.3333   -3.0022 H         1 IDE         0.0000 
@<TRIPOS>BOND
     1    1    2 1    
     2    1   33 1    
     3    1   34 1    
     4    1   35 1    
     5    2    3 1    
     6    2   36 1    
     7    2   37 1    
     8    3    4 1    
     9    3    5 1    
    10    3   23 1    
    11    5   16 ar   
    12    5    6 ar   
    13    6    7 ar   
    14    7   12 ar   
    15    7    8 ar   
    16    8    9 ar   
    17    8   14 ar   
    18    9   10 ar   
    19    9   13 1    
    20   10   11 ar   
    21   10   38 1    
    22   11   12 ar   
    23   11   39 1    
    24   12   40 1    
    25   14   15 2    
    26   14   16 ar   
    27   16   17 1    
    28   17   22 ar   
    29   17   18 ar   
    30   18   19 ar   
    31   18   41 1    
    32   19   20 ar   
    33   19   42 1    
    34   20   21 ar   
    35   20   43 1    
    36   21   22 ar   
    37   21   44 1    
    38   22   45 1    
    39   23   24 1    
    40   23   46 1    
    41   24   32 ar   
    42   24   25 ar   
    43   25   29 ar   
    44   25   26 ar   
    45   26   27 ar   
    46   26   30 ar   
    47   27   28 ar   
    48   27   49 1    
    49   28   29 ar   
    50   28   47 1    
    51   30   31 ar   
    52   31   32 ar   
    53   31   48 1    
@<TRIPOS>SUBSTRUCTURE
     1 IDE         1 GROUP             0       ****    0 ROOT    
@<TRIPOS>MOLECULE
5-fluoro-3-phenyl-2-[(1~{S})-1-(1~{H}-purin-6-ylamino)propyl]quinazolin-4-one
49   53    1
SMALL
USER_CHARGES


@<TRIPOS>ATOM
      1 C1         -5.2180   -5.1996    0.6441 C.3       1 IDE        -0.1004 
      2 C2         -3.9438   -5.9721    0.3330 C.3       1 IDE        -0.1043 
      3 C3         -3.5422   -5.8650   -1.1344 C.3       1 IDE         0.2145 
      4 H1         -4.3471   -6.3375   -1.7166 H         1 IDE         0.0663 
      5 C4         -3.2684   -4.4243   -1.5152 C.ar      1 IDE         0.4962 
      6 N1         -2.3191   -3.8360   -0.8542 N.2       1 IDE        -0.6351 
      7 C5         -2.0751   -2.4788   -1.0864 C.ar      1 IDE         0.2121 
      8 C6         -2.8340   -1.7334   -1.9885 C.ar      1 IDE        -0.2295 
      9 C7         -2.5800   -0.3700   -2.1802 C.ar      1 IDE         0.2029 
     10 C8         -1.5594    0.2518   -1.4623 C.ar      1 IDE        -0.1916 
     11 C9         -0.7952   -0.4837   -0.5597 C.ar      1 IDE        -0.0679 
     12 C10        -1.0530   -1.8424   -0.3725 C.ar      1 IDE        -0.1319 
     13 F1         -3.3006    0.3611   -3.0422 F         1 IDE        -0.1096 
     14 C11        -3.8939   -2.4176   -2.7585 C.ar      1 IDE         0.7171 
     15 O1         -4.5129   -1.7696   -3.5995 O.2       1 IDE        -0.5774 
     16 N2         -4.0507   -3.7930   -2.4853 N.pl3     1 IDE        -0.3243 
     17 C12        -5.0119   -4.5105   -3.2769 C.ar      1 IDE         0.0268 
     18 C13        -6.3595   -4.1535   -3.2293 C.ar      1 IDE        -0.1226 
     19 C14        -7.2927   -4.8487   -3.9984 C.ar      1 IDE        -0.1232 
     20 C15        -6.8784   -5.9009   -4.8150 C.ar      1 IDE        -0.1196 
     21 C16        -5.5308   -6.2580   -4.8625 C.ar      1 IDE        -0.1232 
     22 C17        -4.5976   -5.5628   -4.0934 C.ar      1 IDE        -0.1226 
     23 N3         -2.3142   -6.5528   -1.4252 N.pl3     1 IDE        -0.7695 
     24 C18        -2.2705   -7.8323   -1.7974 C.ar      1 IDE         0.4545 
     25 C19        -1.1114   -8.4938   -2.0754 C.ar      1 IDE        -0.2068 
     26 C20        -1.1078   -9.9051   -2.4826 C.ar      1 IDE         0.5739 
     27 N4          0.1130  -10.2980   -2.6883 N.2       1 IDE        -0.6486 
     28 C21         0.8509   -9.1522   -2.4133 C.ar      1 IDE         0.5270 
     29 N5          0.1922   -8.0840   -2.0554 N.pl3     1 IDE        -0.5856 
     30 N6         -2.2642  -10.6271   -2.6042 N.ar      1 IDE        -0.5883 
     31 C22        -3.3450   -9.9593   -2.3304 C.ar      1 IDE         0.5748 
     32 N7         -3.4156   -8.6416   -1.9447 N.ar      1 IDE        -0.7090 
     33 H2         -5.4621   -5.3095    1.7110 H         1 IDE         0.0470 
     34 H3         -6.0447   -5.5958    0.0361 H         1 IDE         0.0470 
     35 H4         -5.0679   -4.1353    0.4100 H         1 IDE         0.0470 
     36 H5         -3.1171   -5.5759    0.9410 H         1 IDE         0.0611 
     37 H6         -4.0938   -7.0364    0.5671 H         1 IDE         0.0611 
     38 H7         -1.3617    1.3100   -1.6059 H         1 IDE         0.1584 
     39 H8          0.0023   -0.0008   -0.0026 H         1 IDE         0.1480 
     40 H9         -0.4468   -2.4048    0.3338 H         1 IDE         0.1670 
     41 H10        -6.6935   -3.3344   -2.5974 H         1 IDE         0.1465 
     42 H11        -8.3420   -4.5709   -3.9621 H         1 IDE         0.1416 
     43 H12        -7.6051   -6.4425   -5.4134 H         1 IDE         0.1410 
     44 H13        -5.2087   -7.0771   -5.4987 H         1 IDE         0.1416 
     45 H14        -3.5499   -5.8495   -4.1396 H         1 IDE         0.1465 
     46 H15        -1.3541   -6.0220   -1.3445 H         1 IDE         0.4986 
     47 H16         1.9481   -9.1667   -2.5001 H         1 IDE         0.0603 
     48 H17        -4.3338  -10.4397   -2.3949 H         1 IDE         0.0592 
     49 H49         0.4392   -7.0493   -1.7754 H         1 IDE         0.0000 
@<TRIPOS>BOND
     1    1    2 1    
     2    1   33 1    
     3    1   34 1    
     4    1   35 1    
     5    2    3 1    
     6    2   36 1    
     7    2   37 1    
     8    3    4 1    
     9    3    5 1    
    10    3   23 1    
    11    5   16 ar   
    12    5    6 ar   
    13    6    7 ar   
    14    7   12 ar   
    15    7    8 ar   
    16    8    9 ar   
    17    8   14 ar   
    18    9   10 ar   
    19    9   13 1    
    20   10   11 ar   
    21   10   38 1    
    22   11   12 ar   
    23   11   39 1    
    24   12   40 1    
    25   14   15 2    
    26   14   16 ar   
    27   16   17 1    
    28   17   22 ar   
    29   17   18 ar   
    30   18   19 ar   
    31   18   41 1    
    32   19   20 ar   
    33   19   42 1    
    34   20   21 ar   
    35   20   43 1    
    36   21   22 ar   
    37   21   44 1    
    38   22   45 1    
    39   23   24 1    
    40   23   46 1    
    41   24   32 ar   
    42   24   25 ar   
    43   25   29 ar   
    44   25   26 ar   
    45   26   27 ar   
    46   26   30 ar   
    47   27   28 ar   
    48   28   29 ar   
    49   28   47 1    
    50   29   49 1    
    51   30   31 ar   
    52   31   32 ar   
    53   31   48 1    
@<TRIPOS>SUBSTRUCTURE
     1 IDE         1 GROUP             0       ****    0 ROOT    
@<TRIPOS>MOLECULE
5-fluoro-3-phenyl-2-[(1~{S})-1-(1~{H}-purin-6-ylamino)propyl]quinazolin-4-one
49   53    1
SMALL
USER_CHARGES


@<TRIPOS>ATOM
      1 C1         -5.2180   -5.1996    0.6441 C.3       1 IDE        -0.1004 
      2 C2         -3.9438   -5.9721    0.3330 C.3       1 IDE        -0.1043 
      3 C3         -3.5422   -5.8650   -1.1344 C.3       1 IDE         0.2145 
      4 H1         -4.3471   -6.3375   -1.7166 H         1 IDE         0.0663 
      5 C4         -3.2684   -4.4243   -1.5152 C.ar      1 IDE         0.4962 
      6 N1         -2.3191   -3.8360   -0.8542 N.2       1 IDE        -0.6351 
      7 C5         -2.0751   -2.4788   -1.0864 C.ar      1 IDE         0.2121 
      8 C6         -2.8340   -1.7334   -1.9885 C.ar      1 IDE        -0.2295 
      9 C7         -2.5800   -0.3700   -2.1802 C.ar      1 IDE         0.2029 
     10 C8         -1.5594    0.2518   -1.4623 C.ar      1 IDE        -0.1916 
     11 C9         -0.7952   -0.4837   -0.5597 C.ar      1 IDE        -0.0679 
     12 C10        -1.0530   -1.8424   -0.3725 C.ar      1 IDE        -0.1319 
     13 F1         -3.3006    0.3611   -3.0422 F         1 IDE        -0.1096 
     14 C11        -3.8939   -2.4176   -2.7585 C.ar      1 IDE         0.7171 
     15 O1         -4.5129   -1.7696   -3.5995 O.2       1 IDE        -0.5774 
     16 N2         -4.0507   -3.7930   -2.4853 N.pl3     1 IDE        -0.3243 
     17 C12        -5.0119   -4.5105   -3.2769 C.ar      1 IDE         0.0268 
     18 C13        -6.3595   -4.1535   -3.2293 C.ar      1 IDE        -0.1226 
     19 C14        -7.2927   -4.8487   -3.9984 C.ar      1 IDE        -0.1232 
     20 C15        -6.8784   -5.9009   -4.8150 C.ar      1 IDE        -0.1196 
     21 C16        -5.5308   -6.2580   -4.8625 C.ar      1 IDE        -0.1232 
     22 C17        -4.5976   -5.5628   -4.0934 C.ar      1 IDE        -0.1226 
     23 N3         -2.3142   -6.5528   -1.4252 N.pl3     1 IDE        -0.7695 
     24 C18        -2.2705   -7.8323   -1.7974 C.ar      1 IDE         0.4545 
     25 C19        -1.1114   -8.4938   -2.0754 C.ar      1 IDE        -0.2068 
     26 C20        -1.1078   -9.9051   -2.4826 C.ar      1 IDE         0.5739 
     27 N4          0.1130  -10.2980   -2.6883 N.ar      1 IDE        -0.6486 
     28 C21         0.8509   -9.1522   -2.4133 C.ar      1 IDE         0.5270 
     29 N5          0.1922   -8.0840   -2.0554 N.2       1 IDE        -0.5856 
     30 N6         -2.2642  -10.6271   -2.6042 N.pl3     1 IDE        -0.5883 
     31 C22        -3.3450   -9.9593   -2.3304 C.ar      1 IDE         0.5748 
     32 N7         -3.4156   -8.6416   -1.9447 N.2       1 IDE        -0.7090 
     33 H2         -5.4621   -5.3095    1.7110 H         1 IDE         0.0470 
     34 H3         -6.0447   -5.5958    0.0361 H         1 IDE         0.0470 
     35 H4         -5.0679   -4.1353    0.4100 H         1 IDE         0.0470 
     36 H5         -3.1171   -5.5759    0.9410 H         1 IDE         0.0611 
     37 H6         -4.0938   -7.0364    0.5671 H         1 IDE         0.0611 
     38 H7         -1.3617    1.3100   -1.6059 H         1 IDE         0.1584 
     39 H8          0.0023   -0.0008   -0.0026 H         1 IDE         0.1480 
     40 H9         -0.4468   -2.4048    0.3338 H         1 IDE         0.1670 
     41 H10        -6.6935   -3.3344   -2.5974 H         1 IDE         0.1465 
     42 H11        -8.3420   -4.5709   -3.9621 H         1 IDE         0.1416 
     43 H12        -7.6051   -6.4425   -5.4134 H         1 IDE         0.1410 
     44 H13        -5.2087   -7.0771   -5.4987 H         1 IDE         0.1416 
     45 H14        -3.5499   -5.8495   -4.1396 H         1 IDE         0.1465 
     46 H16         1.9481   -9.1667   -2.5001 H         1 IDE         0.0603 
     47 H17        -4.3338  -10.4397   -2.3949 H         1 IDE         0.0592 
     48 H48        -2.2239  -11.6825   -2.9118 H         1 IDE         0.0000 
     49 H49        -1.3826   -5.9759   -1.3290 H         1 IDE         0.0000 
@<TRIPOS>BOND
     1    1    2 1    
     2    1   33 1    
     3    1   34 1    
     4    1   35 1    
     5    2    3 1    
     6    2   36 1    
     7    2   37 1    
     8    3    4 1    
     9    3    5 1    
    10    3   23 1    
    11    5   16 ar   
    12    5    6 ar   
    13    6    7 ar   
    14    7   12 ar   
    15    7    8 ar   
    16    8    9 ar   
    17    8   14 ar   
    18    9   10 ar   
    19    9   13 1    
    20   10   11 ar   
    21   10   38 1    
    22   11   12 ar   
    23   11   39 1    
    24   12   40 1    
    25   14   15 2    
    26   14   16 ar   
    27   16   17 1    
    28   17   22 ar   
    29   17   18 ar   
    30   18   19 ar   
    31   18   41 1    
    32   19   20 ar   
    33   19   42 1    
    34   20   21 ar   
    35   20   43 1    
    36   21   22 ar   
    37   21   44 1    
    38   22   45 1    
    39   23   24 2    
    40   23   49 1    
    41   24   32 ar   
    42   24   25 ar   
    43   25   29 ar   
    44   25   26 ar   
    45   26   27 ar   
    46   26   30 ar   
    47   27   28 ar   
    48   28   29 ar   
    49   28   46 1    
    50   30   31 ar   
    51   30   48 1    
    52   31   32 ar   
    53   31   47 1    
@<TRIPOS>SUBSTRUCTURE
     1 IDE         1 GROUP             0       ****    0 ROOT    
@<TRIPOS>MOLECULE
5-fluoro-3-phenyl-2-[(1~{S})-1-(1~{H}-purin-6-ylamino)propyl]quinazolin-4-one
48   52    1
SMALL
USER_CHARGES


@<TRIPOS>ATOM
      1 C1         -5.2180   -5.1996    0.6441 C.3       1 IDE        -0.1004 
      2 C2         -3.9438   -5.9721    0.3330 C.3       1 IDE        -0.1043 
      3 C3         -3.5422   -5.8650   -1.1344 C.3       1 IDE         0.2145 
      4 H1         -4.3471   -6.3375   -1.7166 H         1 IDE         0.0663 
      5 C4         -3.2684   -4.4243   -1.5152 C.ar      1 IDE         0.4962 
      6 N1         -2.3191   -3.8360   -0.8542 N.2       1 IDE        -0.6351 
      7 C5         -2.0751   -2.4788   -1.0864 C.ar      1 IDE         0.2121 
      8 C6         -2.8340   -1.7334   -1.9885 C.ar      1 IDE        -0.2295 
      9 C7         -2.5800   -0.3700   -2.1802 C.ar      1 IDE         0.2029 
     10 C8         -1.5594    0.2518   -1.4623 C.ar      1 IDE        -0.1916 
     11 C9         -0.7952   -0.4837   -0.5597 C.ar      1 IDE        -0.0679 
     12 C10        -1.0530   -1.8424   -0.3725 C.ar      1 IDE        -0.1319 
     13 F1         -3.3006    0.3611   -3.0422 F         1 IDE        -0.1096 
     14 C11        -3.8939   -2.4176   -2.7585 C.ar      1 IDE         0.7171 
     15 O1         -4.5129   -1.7696   -3.5995 O.2       1 IDE        -0.5774 
     16 N2         -4.0507   -3.7930   -2.4853 N.pl3     1 IDE        -0.3243 
     17 C12        -5.0119   -4.5105   -3.2769 C.ar      1 IDE         0.0268 
     18 C13        -6.3595   -4.1535   -3.2293 C.ar      1 IDE        -0.1226 
     19 C14        -7.2927   -4.8487   -3.9984 C.ar      1 IDE        -0.1232 
     20 C15        -6.8784   -5.9009   -4.8150 C.ar      1 IDE        -0.1196 
     21 C16        -5.5308   -6.2580   -4.8625 C.ar      1 IDE        -0.1232 
     22 C17        -4.5976   -5.5628   -4.0934 C.ar      1 IDE        -0.1226 
     23 N3         -2.3142   -6.5528   -1.4252 N.pl3     1 IDE        -0.7695 
     24 C18        -2.2705   -7.8323   -1.7974 C.ar      1 IDE         0.4545 
     25 C19        -1.1114   -8.4938   -2.0754 C.ar      1 IDE        -0.2068 
     26 C20        -1.1078   -9.9051   -2.4826 C.ar      1 IDE         0.5739 
     27 N4          0.1130  -10.2980   -2.6883 N.2       1 IDE        -0.6486 
     28 C21         0.8509   -9.1522   -2.4133 C.ar      1 IDE         0.5270 
     29 N5          0.1922   -8.0840   -2.0554 N.ar      1 IDE        -0.5856 
     30 N6         -2.2642  -10.6271   -2.6042 N.ar      1 IDE        -0.5883 
     31 C22        -3.3450   -9.9593   -2.3304 C.ar      1 IDE         0.5748 
     32 N7         -3.4156   -8.6416   -1.9447 N.ar      1 IDE        -0.7090 
     33 H2         -5.4621   -5.3095    1.7110 H         1 IDE         0.0470 
     34 H3         -6.0447   -5.5958    0.0361 H         1 IDE         0.0470 
     35 H4         -5.0679   -4.1353    0.4100 H         1 IDE         0.0470 
     36 H5         -3.1171   -5.5759    0.9410 H         1 IDE         0.0611 
     37 H6         -4.0938   -7.0364    0.5671 H         1 IDE         0.0611 
     38 H7         -1.3617    1.3100   -1.6059 H         1 IDE         0.1584 
     39 H8          0.0023   -0.0008   -0.0026 H         1 IDE         0.1480 
     40 H9         -0.4468   -2.4048    0.3338 H         1 IDE         0.1670 
     41 H10        -6.6935   -3.3344   -2.5974 H         1 IDE         0.1465 
     42 H11        -8.3420   -4.5709   -3.9621 H         1 IDE         0.1416 
     43 H12        -7.6051   -6.4425   -5.4134 H         1 IDE         0.1410 
     44 H13        -5.2087   -7.0771   -5.4987 H         1 IDE         0.1416 
     45 H14        -3.5499   -5.8495   -4.1396 H         1 IDE         0.1465 
     46 H15        -1.3541   -6.0220   -1.3445 H         1 IDE         0.4986 
     47 H16         1.9481   -9.1667   -2.5001 H         1 IDE         0.0603 
     48 H17        -4.3338  -10.4397   -2.3949 H         1 IDE         0.0592 
@<TRIPOS>BOND
     1    1    2 1    
     2    1   33 1    
     3    1   34 1    
     4    1   35 1    
     5    2    3 1    
     6    2   36 1    
     7    2   37 1    
     8    3    4 1    
     9    3    5 1    
    10    3   23 1    
    11    5   16 ar   
    12    5    6 ar   
    13    6    7 ar   
    14    7   12 ar   
    15    7    8 ar   
    16    8    9 ar   
    17    8   14 ar   
    18    9   10 ar   
    19    9   13 1    
    20   10   11 ar   
    21   10   38 1    
    22   11   12 ar   
    23   11   39 1    
    24   12   40 1    
    25   14   15 2    
    26   14   16 ar   
    27   16   17 1    
    28   17   22 ar   
    29   17   18 ar   
    30   18   19 ar   
    31   18   41 1    
    32   19   20 ar   
    33   19   42 1    
    34   20   21 ar   
    35   20   43 1    
    36   21   22 ar   
    37   21   44 1    
    38   22   45 1    
    39   23   24 1    
    40   23   46 1    
    41   24   32 ar   
    42   24   25 ar   
    43   25   29 ar   
    44   25   26 ar   
    45   26   27 ar   
    46   26   30 ar   
    47   27   28 ar   
    48   28   29 ar   
    49   28   47 1    
    50   30   31 ar   
    51   31   32 ar   
    52   31   48 1    
@<TRIPOS>SUBSTRUCTURE
     1 IDE         1 GROUP             0       ****    0 ROOT    
@<TRIPOS>MOLECULE
5-fluoro-3-phenyl-2-[(1~{S})-1-(1~{H}-purin-6-ylamino)propyl]quinazolin-4-one
49   53    1
SMALL
USER_CHARGES


@<TRIPOS>ATOM
      1 C1         -5.2180   -5.1996    0.6441 C.3       1 IDE        -0.1004 
      2 C2         -3.9438   -5.9721    0.3330 C.3       1 IDE        -0.1043 
      3 C3         -3.5422   -5.8650   -1.1344 C.3       1 IDE         0.2145 
      4 H1         -4.3471   -6.3375   -1.7166 H         1 IDE         0.0663 
      5 C4         -3.2684   -4.4243   -1.5152 C.ar      1 IDE         0.4962 
      6 N1         -2.3191   -3.8360   -0.8542 N.2       1 IDE        -0.6351 
      7 C5         -2.0751   -2.4788   -1.0864 C.ar      1 IDE         0.2121 
      8 C6         -2.8340   -1.7334   -1.9885 C.ar      1 IDE        -0.2295 
      9 C7         -2.5800   -0.3700   -2.1802 C.ar      1 IDE         0.2029 
     10 C8         -1.5594    0.2518   -1.4623 C.ar      1 IDE        -0.1916 
     11 C9         -0.7952   -0.4837   -0.5597 C.ar      1 IDE        -0.0679 
     12 C10        -1.0530   -1.8424   -0.3725 C.ar      1 IDE        -0.1319 
     13 F1         -3.3006    0.3611   -3.0422 F         1 IDE        -0.1096 
     14 C11        -3.8939   -2.4176   -2.7585 C.ar      1 IDE         0.7171 
     15 O1         -4.5129   -1.7696   -3.5995 O.2       1 IDE        -0.5774 
     16 N2         -4.0507   -3.7930   -2.4853 N.pl3     1 IDE        -0.3243 
     17 C12        -5.0119   -4.5105   -3.2769 C.ar      1 IDE         0.0268 
     18 C13        -6.3595   -4.1535   -3.2293 C.ar      1 IDE        -0.1226 
     19 C14        -7.2927   -4.8487   -3.9984 C.ar      1 IDE        -0.1232 
     20 C15        -6.8784   -5.9009   -4.8150 C.ar      1 IDE        -0.1196 
     21 C16        -5.5308   -6.2580   -4.8625 C.ar      1 IDE        -0.1232 
     22 C17        -4.5976   -5.5628   -4.0934 C.ar      1 IDE        -0.1226 
     23 N3         -2.3142   -6.5528   -1.4252 N.pl3     1 IDE        -0.7695 
     24 C18        -2.2705   -7.8323   -1.7974 C.ar      1 IDE         0.4545 
     25 C19        -1.1114   -8.4938   -2.0754 C.ar      1 IDE        -0.2068 
     26 C20        -1.1078   -9.9051   -2.4826 C.ar      1 IDE         0.5739 
     27 N4          0.1130  -10.2980   -2.6883 N.ar      1 IDE        -0.6486 
     28 C21         0.8509   -9.1522   -2.4133 C.ar      1 IDE         0.5270 
     29 N5          0.1922   -8.0840   -2.0554 N.ar      1 IDE        -0.5856 
     30 N6         -2.2642  -10.6271   -2.6042 N.2       1 IDE        -0.5883 
     31 C22        -3.3450   -9.9593   -2.3304 C.ar      1 IDE         0.5748 
     32 N7         -3.4156   -8.6416   -1.9447 N.pl3     1 IDE        -0.7090 
     33 H2         -5.4621   -5.3095    1.7110 H         1 IDE         0.0470 
     34 H3         -6.0447   -5.5958    0.0361 H         1 IDE         0.0470 
     35 H4         -5.0679   -4.1353    0.4100 H         1 IDE         0.0470 
     36 H5         -3.1171   -5.5759    0.9410 H         1 IDE         0.0611 
     37 H6         -4.0938   -7.0364    0.5671 H         1 IDE         0.0611 
     38 H7         -1.3617    1.3100   -1.6059 H         1 IDE         0.1584 
     39 H8          0.0023   -0.0008   -0.0026 H         1 IDE         0.1480 
     40 H9         -0.4468   -2.4048    0.3338 H         1 IDE         0.1670 
     41 H10        -6.6935   -3.3344   -2.5974 H         1 IDE         0.1465 
     42 H11        -8.3420   -4.5709   -3.9621 H         1 IDE         0.1416 
     43 H12        -7.6051   -6.4425   -5.4134 H         1 IDE         0.1410 
     44 H13        -5.2087   -7.0771   -5.4987 H         1 IDE         0.1416 
     45 H14        -3.5499   -5.8495   -4.1396 H         1 IDE         0.1465 
     46 H16         1.9481   -9.1667   -2.5001 H         1 IDE         0.0603 
     47 H17        -4.3338  -10.4397   -2.3949 H         1 IDE         0.0592 
     48 H18        -4.4138   -8.2231   -1.7486 H         1 IDE         0.4528 
     49 H49        -1.3541   -6.0220   -1.3445 H         1 IDE         0.0000 
@<TRIPOS>BOND
     1    1    2 1    
     2    1   33 1    
     3    1   34 1    
     4    1   35 1    
     5    2    3 1    
     6    2   36 1    
     7    2   37 1    
     8    3    4 1    
     9    3    5 1    
    10    3   23 1    
    11    5   16 ar   
    12    5    6 ar   
    13    6    7 ar   
    14    7   12 ar   
    15    7    8 ar   
    16    8    9 ar   
    17    8   14 ar   
    18    9   10 ar   
    19    9   13 1    
    20   10   11 ar   
    21   10   38 1    
    22   11   12 ar   
    23   11   39 1    
    24   12   40 1    
    25   14   15 2    
    26   14   16 ar   
    27   16   17 1    
    28   17   22 ar   
    29   17   18 ar   
    30   18   19 ar   
    31   18   41 1    
    32   19   20 ar   
    33   19   42 1    
    34   20   21 ar   
    35   20   43 1    
    36   21   22 ar   
    37   21   44 1    
    38   22   45 1    
    39   23   24 1    
    40   23   49 1    
    41   24   32 ar   
    42   24   25 ar   
    43   25   29 ar   
    44   25   26 ar   
    45   26   27 ar   
    46   26   30 ar   
    47   27   28 ar   
    48   28   29 ar   
    49   28   46 1    
    50   30   31 ar   
    51   31   32 ar   
    52   31   47 1    
    53   32   48 1    
@<TRIPOS>SUBSTRUCTURE
     1 IDE         1 GROUP             0       ****    0 ROOT    
@<TRIPOS>MOLECULE
5-fluoro-3-phenyl-2-[(1~{S})-1-(1~{H}-purin-6-ylamino)propyl]quinazolin-4-one
50   54    1
SMALL
USER_CHARGES


@<TRIPOS>ATOM
      1 C1         -5.2180   -5.1996    0.6441 C.3       1 IDE        -0.1004 
      2 C2         -3.9438   -5.9721    0.3330 C.3       1 IDE        -0.1043 
      3 C3         -3.5422   -5.8650   -1.1344 C.3       1 IDE         0.2145 
      4 H1         -4.3471   -6.3375   -1.7166 H         1 IDE         0.0663 
      5 C4         -3.2684   -4.4243   -1.5152 C.ar      1 IDE         0.4962 
      6 N1         -2.3191   -3.8360   -0.8542 N.2       1 IDE        -0.6351 
      7 C5         -2.0751   -2.4788   -1.0864 C.ar      1 IDE         0.2121 
      8 C6         -2.8340   -1.7334   -1.9885 C.ar      1 IDE        -0.2295 
      9 C7         -2.5800   -0.3700   -2.1802 C.ar      1 IDE         0.2029 
     10 C8         -1.5594    0.2518   -1.4623 C.ar      1 IDE        -0.1916 
     11 C9         -0.7952   -0.4837   -0.5597 C.ar      1 IDE        -0.0679 
     12 C10        -1.0530   -1.8424   -0.3725 C.ar      1 IDE        -0.1319 
     13 F1         -3.3006    0.3611   -3.0422 F         1 IDE        -0.1096 
     14 C11        -3.8939   -2.4176   -2.7585 C.ar      1 IDE         0.7171 
     15 O1         -4.5129   -1.7696   -3.5995 O.2       1 IDE        -0.5774 
     16 N2         -4.0507   -3.7930   -2.4853 N.pl3     1 IDE        -0.3243 
     17 C12        -5.0119   -4.5105   -3.2769 C.ar      1 IDE         0.0268 
     18 C13        -6.3595   -4.1535   -3.2293 C.ar      1 IDE        -0.1226 
     19 C14        -7.2927   -4.8487   -3.9984 C.ar      1 IDE        -0.1232 
     20 C15        -6.8784   -5.9009   -4.8150 C.ar      1 IDE        -0.1196 
     21 C16        -5.5308   -6.2580   -4.8625 C.ar      1 IDE        -0.1232 
     22 C17        -4.5976   -5.5628   -4.0934 C.ar      1 IDE        -0.1226 
     23 N3         -2.3142   -6.5528   -1.4252 N.pl3     1 IDE        -0.7695 
     24 C18        -2.2705   -7.8323   -1.7974 C.ar      1 IDE         0.4545 
     25 C19        -1.1114   -8.4938   -2.0754 C.ar      1 IDE        -0.2068 
     26 C20        -1.1078   -9.9051   -2.4826 C.ar      1 IDE         0.5739 
     27 N4          0.1130  -10.2980   -2.6883 N.pl3     1 IDE        -0.6486 
     28 C21         0.8509   -9.1522   -2.4133 C.ar      1 IDE         0.5270 
     29 N5          0.1922   -8.0840   -2.0554 N.2       1 IDE        -0.5856 
     30 N6         -2.2642  -10.6271   -2.6042 N.ar      1 IDE        -0.5883 
     31 C22        -3.3450   -9.9593   -2.3304 C.ar      1 IDE         0.5748 
     32 N7         -3.4156   -8.6416   -1.9447 N.pl3     1 IDE        -0.7090 
     33 H2         -5.4621   -5.3095    1.7110 H         1 IDE         0.0470 
     34 H3         -6.0447   -5.5958    0.0361 H         1 IDE         0.0470 
     35 H4         -5.0679   -4.1353    0.4100 H         1 IDE         0.0470 
     36 H5         -3.1171   -5.5759    0.9410 H         1 IDE         0.0611 
     37 H6         -4.0938   -7.0364    0.5671 H         1 IDE         0.0611 
     38 H7         -1.3617    1.3100   -1.6059 H         1 IDE         0.1584 
     39 H8          0.0023   -0.0008   -0.0026 H         1 IDE         0.1480 
     40 H9         -0.4468   -2.4048    0.3338 H         1 IDE         0.1670 
     41 H10        -6.6935   -3.3344   -2.5974 H         1 IDE         0.1465 
     42 H11        -8.3420   -4.5709   -3.9621 H         1 IDE         0.1416 
     43 H12        -7.6051   -6.4425   -5.4134 H         1 IDE         0.1410 
     44 H13        -5.2087   -7.0771   -5.4987 H         1 IDE         0.1416 
     45 H14        -3.5499   -5.8495   -4.1396 H         1 IDE         0.1465 
     46 H15        -1.3541   -6.0220   -1.3445 H         1 IDE         0.4986 
     47 H16         1.9481   -9.1667   -2.5001 H         1 IDE         0.0603 
     48 H17        -4.3338  -10.4397   -2.3949 H         1 IDE         0.0592 
     49 H18        -4.4138   -8.2231   -1.7486 H         1 IDE         0.4528 
     50 H50         0.3121  -11.3333   -3.0022 H         1 IDE         0.0000 
@<TRIPOS>BOND
     1    1    2 1    
     2    1   33 1    
     3    1   34 1    
     4    1   35 1    
     5    2    3 1    
     6    2   36 1    
     7    2   37 1    
     8    3    4 1    
     9    3    5 1    
    10    3   23 1    
    11    5   16 ar   
    12    5    6 ar   
    13    6    7 ar   
    14    7   12 ar   
    15    7    8 ar   
    16    8    9 ar   
    17    8   14 ar   
    18    9   10 ar   
    19    9   13 1    
    20   10   11 ar   
    21   10   38 1    
    22   11   12 ar   
    23   11   39 1    
    24   12   40 1    
    25   14   15 2    
    26   14   16 ar   
    27   16   17 1    
    28   17   22 ar   
    29   17   18 ar   
    30   18   19 ar   
    31   18   41 1    
    32   19   20 ar   
    33   19   42 1    
    34   20   21 ar   
    35   20   43 1    
    36   21   22 ar   
    37   21   44 1    
    38   22   45 1    
    39   23   24 1    
    40   23   46 1    
    41   24   32 ar   
    42   24   25 ar   
    43   25   29 ar   
    44   25   26 ar   
    45   26   27 ar   
    46   26   30 ar   
    47   27   28 ar   
    48   27   50 1    
    49   28   29 ar   
    50   28   47 1    
    51   30   31 ar   
    52   31   32 ar   
    53   31   48 1    
    54   32   49 1    
@<TRIPOS>SUBSTRUCTURE
     1 IDE         1 GROUP             0       ****    0 ROOT    
