5-fluoro-3-phenyl-2-[(1~{S})-1-(1~{H}-purin-6-ylamino)propyl]quinazolin-4-one
                    3D
 Structure written by MMmdl.
 49 53  0  0  1  0            999 V2000
   -5.2180   -5.1996    0.6441 C   0  0  0  0  0  0
   -3.9438   -5.9721    0.3330 C   0  0  0  0  0  0
   -3.5422   -5.8650   -1.1344 C   0  0  1  0  0  0
   -4.3471   -6.3375   -1.7166 H   0  0  0  0  0  0
   -3.2684   -4.4243   -1.5152 C   0  0  0  0  0  0
   -2.3191   -3.8360   -0.8542 N   0  0  0  0  0  0
   -2.0751   -2.4788   -1.0864 C   0  0  0  0  0  0
   -2.8340   -1.7334   -1.9885 C   0  0  0  0  0  0
   -2.5800   -0.3700   -2.1802 C   0  0  0  0  0  0
   -1.5594    0.2518   -1.4623 C   0  0  0  0  0  0
   -0.7952   -0.4837   -0.5597 C   0  0  0  0  0  0
   -1.0530   -1.8424   -0.3725 C   0  0  0  0  0  0
   -3.3006    0.3611   -3.0422 F   0  0  0  0  0  0
   -3.8939   -2.4176   -2.7585 C   0  0  0  0  0  0
   -4.5129   -1.7696   -3.5995 O   0  0  0  0  0  0
   -4.0507   -3.7930   -2.4853 N   0  0  0  0  0  0
   -5.0119   -4.5105   -3.2769 C   0  0  0  0  0  0
   -6.3595   -4.1535   -3.2293 C   0  0  0  0  0  0
   -7.2927   -4.8487   -3.9984 C   0  0  0  0  0  0
   -6.8784   -5.9009   -4.8150 C   0  0  0  0  0  0
   -5.5308   -6.2580   -4.8625 C   0  0  0  0  0  0
   -4.5976   -5.5628   -4.0934 C   0  0  0  0  0  0
   -2.3142   -6.5528   -1.4252 N   0  0  0  0  0  0
   -2.2705   -7.8323   -1.7974 C   0  0  0  0  0  0
   -1.1114   -8.4938   -2.0754 C   0  0  0  0  0  0
   -1.1078   -9.9051   -2.4826 C   0  0  0  0  0  0
    0.1130  -10.2980   -2.6883 N   0  0  0  0  0  0
    0.8509   -9.1522   -2.4133 C   0  0  0  0  0  0
    0.1922   -8.0840   -2.0554 N   0  0  0  0  0  0
   -2.2642  -10.6271   -2.6042 N   0  0  0  0  0  0
   -3.3450   -9.9593   -2.3304 C   0  0  0  0  0  0
   -3.4156   -8.6416   -1.9447 N   0  0  0  0  0  0
   -5.4621   -5.3095    1.7110 H   0  0  0  0  0  0
   -6.0447   -5.5958    0.0361 H   0  0  0  0  0  0
   -5.0679   -4.1353    0.4100 H   0  0  0  0  0  0
   -3.1171   -5.5759    0.9410 H   0  0  0  0  0  0
   -4.0938   -7.0364    0.5671 H   0  0  0  0  0  0
   -1.3617    1.3100   -1.6059 H   0  0  0  0  0  0
    0.0023   -0.0008   -0.0026 H   0  0  0  0  0  0
   -0.4468   -2.4048    0.3338 H   0  0  0  0  0  0
   -6.6935   -3.3344   -2.5974 H   0  0  0  0  0  0
   -8.3420   -4.5709   -3.9621 H   0  0  0  0  0  0
   -7.6051   -6.4425   -5.4134 H   0  0  0  0  0  0
   -5.2087   -7.0771   -5.4987 H   0  0  0  0  0  0
   -3.5499   -5.8495   -4.1396 H   0  0  0  0  0  0
   -1.3541   -6.0220   -1.3445 H   0  0  0  0  0  0
    1.9481   -9.1667   -2.5001 H   0  0  0  0  0  0
   -4.3338  -10.4397   -2.3949 H   0  0  0  0  0  0
    0.3121  -11.3333   -3.0022 H   0  0  0  0  0  0
  1  2  1  0  0  0
  1 33  1  0  0  0
  1 34  1  0  0  0
  1 35  1  0  0  0
  2  3  1  0  0  0
  2 36  1  0  0  0
  2 37  1  0  0  0
  3  4  1  0  0  0
  3  5  1  0  0  0
  3 23  1  0  0  0
  5 16  1  0  0  0
  5  6  2  0  0  0
  6  7  1  0  0  0
  7 12  2  0  0  0
  7  8  1  0  0  0
  8  9  2  0  0  0
  8 14  1  0  0  0
  9 10  1  0  0  0
  9 13  1  0  0  0
 10 11  2  0  0  0
 10 38  1  0  0  0
 11 12  1  0  0  0
 11 39  1  0  0  0
 12 40  1  0  0  0
 14 15  2  0  0  0
 14 16  1  0  0  0
 16 17  1  0  0  0
 17 22  2  0  0  0
 17 18  1  0  0  0
 18 19  2  0  0  0
 18 41  1  0  0  0
 19 20  1  0  0  0
 19 42  1  0  0  0
 20 21  2  0  0  0
 20 43  1  0  0  0
 21 22  1  0  0  0
 21 44  1  0  0  0
 22 45  1  0  0  0
 23 24  1  0  0  0
 23 46  1  0  0  0
 24 32  1  0  0  0
 24 25  2  0  0  0
 25 29  1  0  0  0
 25 26  1  0  0  0
 26 27  1  0  0  0
 26 30  2  0  0  0
 27 28  1  0  0  0
 27 49  1  0  0  0
 28 29  2  0  0  0
 28 47  1  0  0  0
 30 31  1  0  0  0
 31 32  2  0  0  0
 31 48  1  0  0  0
M  END
> <s_m_source_file>
/Users/choderaj/github/choderalab/mcce-charges/mcce-charges.jchodera/epik_inhibitors/output/Idelalisib/Idelalisib-input.mol2

> <i_m_source_file_index>
1

> <r_lp_tautomer_probability>
0.95558173703543

> <r_epik_Ionization_Penalty>
  0.0030

> <r_epik_Ionization_Penalty_Charging>
  0.0000

> <r_epik_Ionization_Penalty_Neutral>
  0.0030

> <r_epik_State_Penalty>
  0.0287

> <i_epik_Tot_Q>
0

$$$$
5-fluoro-3-phenyl-2-[(1~{S})-1-(1~{H}-purin-6-ylamino)propyl]quinazolin-4-one
                    3D
 Structure written by MMmdl.
 49 53  0  0  1  0            999 V2000
   -5.2180   -5.1996    0.6441 C   0  0  0  0  0  0
   -3.9438   -5.9721    0.3330 C   0  0  0  0  0  0
   -3.5422   -5.8650   -1.1344 C   0  0  1  0  0  0
   -4.3471   -6.3375   -1.7166 H   0  0  0  0  0  0
   -3.2684   -4.4243   -1.5152 C   0  0  0  0  0  0
   -2.3191   -3.8360   -0.8542 N   0  0  0  0  0  0
   -2.0751   -2.4788   -1.0864 C   0  0  0  0  0  0
   -2.8340   -1.7334   -1.9885 C   0  0  0  0  0  0
   -2.5800   -0.3700   -2.1802 C   0  0  0  0  0  0
   -1.5594    0.2518   -1.4623 C   0  0  0  0  0  0
   -0.7952   -0.4837   -0.5597 C   0  0  0  0  0  0
   -1.0530   -1.8424   -0.3725 C   0  0  0  0  0  0
   -3.3006    0.3611   -3.0422 F   0  0  0  0  0  0
   -3.8939   -2.4176   -2.7585 C   0  0  0  0  0  0
   -4.5129   -1.7696   -3.5995 O   0  0  0  0  0  0
   -4.0507   -3.7930   -2.4853 N   0  0  0  0  0  0
   -5.0119   -4.5105   -3.2769 C   0  0  0  0  0  0
   -6.3595   -4.1535   -3.2293 C   0  0  0  0  0  0
   -7.2927   -4.8487   -3.9984 C   0  0  0  0  0  0
   -6.8784   -5.9009   -4.8150 C   0  0  0  0  0  0
   -5.5308   -6.2580   -4.8625 C   0  0  0  0  0  0
   -4.5976   -5.5628   -4.0934 C   0  0  0  0  0  0
   -2.3142   -6.5528   -1.4252 N   0  0  0  0  0  0
   -2.2705   -7.8323   -1.7974 C   0  0  0  0  0  0
   -1.1114   -8.4938   -2.0754 C   0  0  0  0  0  0
   -1.1078   -9.9051   -2.4826 C   0  0  0  0  0  0
    0.1130  -10.2980   -2.6883 N   0  0  0  0  0  0
    0.8509   -9.1522   -2.4133 C   0  0  0  0  0  0
    0.1922   -8.0840   -2.0554 N   0  0  0  0  0  0
   -2.2642  -10.6271   -2.6042 N   0  0  0  0  0  0
   -3.3450   -9.9593   -2.3304 C   0  0  0  0  0  0
   -3.4156   -8.6416   -1.9447 N   0  0  0  0  0  0
   -5.4621   -5.3095    1.7110 H   0  0  0  0  0  0
   -6.0447   -5.5958    0.0361 H   0  0  0  0  0  0
   -5.0679   -4.1353    0.4100 H   0  0  0  0  0  0
   -3.1171   -5.5759    0.9410 H   0  0  0  0  0  0
   -4.0938   -7.0364    0.5671 H   0  0  0  0  0  0
   -1.3617    1.3100   -1.6059 H   0  0  0  0  0  0
    0.0023   -0.0008   -0.0026 H   0  0  0  0  0  0
   -0.4468   -2.4048    0.3338 H   0  0  0  0  0  0
   -6.6935   -3.3344   -2.5974 H   0  0  0  0  0  0
   -8.3420   -4.5709   -3.9621 H   0  0  0  0  0  0
   -7.6051   -6.4425   -5.4134 H   0  0  0  0  0  0
   -5.2087   -7.0771   -5.4987 H   0  0  0  0  0  0
   -3.5499   -5.8495   -4.1396 H   0  0  0  0  0  0
   -1.3541   -6.0220   -1.3445 H   0  0  0  0  0  0
    1.9481   -9.1667   -2.5001 H   0  0  0  0  0  0
   -4.3338  -10.4397   -2.3949 H   0  0  0  0  0  0
    0.4392   -7.0493   -1.7754 H   0  0  0  0  0  0
  1  2  1  0  0  0
  1 33  1  0  0  0
  1 34  1  0  0  0
  1 35  1  0  0  0
  2  3  1  0  0  0
  2 36  1  0  0  0
  2 37  1  0  0  0
  3  4  1  0  0  0
  3  5  1  0  0  0
  3 23  1  0  0  0
  5 16  1  0  0  0
  5  6  2  0  0  0
  6  7  1  0  0  0
  7 12  2  0  0  0
  7  8  1  0  0  0
  8  9  2  0  0  0
  8 14  1  0  0  0
  9 10  1  0  0  0
  9 13  1  0  0  0
 10 11  2  0  0  0
 10 38  1  0  0  0
 11 12  1  0  0  0
 11 39  1  0  0  0
 12 40  1  0  0  0
 14 15  2  0  0  0
 14 16  1  0  0  0
 16 17  1  0  0  0
 17 22  2  0  0  0
 17 18  1  0  0  0
 18 19  2  0  0  0
 18 41  1  0  0  0
 19 20  1  0  0  0
 19 42  1  0  0  0
 20 21  2  0  0  0
 20 43  1  0  0  0
 21 22  1  0  0  0
 21 44  1  0  0  0
 22 45  1  0  0  0
 23 24  1  0  0  0
 23 46  1  0  0  0
 24 32  1  0  0  0
 24 25  2  0  0  0
 25 29  1  0  0  0
 25 26  1  0  0  0
 26 27  1  0  0  0
 26 30  2  0  0  0
 27 28  2  0  0  0
 28 29  1  0  0  0
 28 47  1  0  0  0
 29 49  1  0  0  0
 30 31  1  0  0  0
 31 32  2  0  0  0
 31 48  1  0  0  0
M  END
> <s_m_source_file>
/Users/choderaj/github/choderalab/mcce-charges/mcce-charges.jchodera/epik_inhibitors/output/Idelalisib/Idelalisib-input.mol2

> <i_m_source_file_index>
1

> <r_lp_tautomer_probability>
0.0419191988452545

> <r_epik_Ionization_Penalty>
  0.0028

> <r_epik_Ionization_Penalty_Charging>
  0.0000

> <r_epik_Ionization_Penalty_Neutral>
  0.0028

> <r_epik_State_Penalty>
  1.8221

> <i_epik_Tot_Q>
0

$$$$
5-fluoro-3-phenyl-2-[(1~{S})-1-(1~{H}-purin-6-ylamino)propyl]quinazolin-4-one
                    3D
 Structure written by MMmdl.
 49 53  0  0  1  0            999 V2000
   -5.2180   -5.1996    0.6441 C   0  0  0  0  0  0
   -3.9438   -5.9721    0.3330 C   0  0  0  0  0  0
   -3.5422   -5.8650   -1.1344 C   0  0  1  0  0  0
   -4.3471   -6.3375   -1.7166 H   0  0  0  0  0  0
   -3.2684   -4.4243   -1.5152 C   0  0  0  0  0  0
   -2.3191   -3.8360   -0.8542 N   0  0  0  0  0  0
   -2.0751   -2.4788   -1.0864 C   0  0  0  0  0  0
   -2.8340   -1.7334   -1.9885 C   0  0  0  0  0  0
   -2.5800   -0.3700   -2.1802 C   0  0  0  0  0  0
   -1.5594    0.2518   -1.4623 C   0  0  0  0  0  0
   -0.7952   -0.4837   -0.5597 C   0  0  0  0  0  0
   -1.0530   -1.8424   -0.3725 C   0  0  0  0  0  0
   -3.3006    0.3611   -3.0422 F   0  0  0  0  0  0
   -3.8939   -2.4176   -2.7585 C   0  0  0  0  0  0
   -4.5129   -1.7696   -3.5995 O   0  0  0  0  0  0
   -4.0507   -3.7930   -2.4853 N   0  0  0  0  0  0
   -5.0119   -4.5105   -3.2769 C   0  0  0  0  0  0
   -6.3595   -4.1535   -3.2293 C   0  0  0  0  0  0
   -7.2927   -4.8487   -3.9984 C   0  0  0  0  0  0
   -6.8784   -5.9009   -4.8150 C   0  0  0  0  0  0
   -5.5308   -6.2580   -4.8625 C   0  0  0  0  0  0
   -4.5976   -5.5628   -4.0934 C   0  0  0  0  0  0
   -2.3142   -6.5528   -1.4252 N   0  3  0  0  0  0
   -2.2705   -7.8323   -1.7974 C   0  0  0  0  0  0
   -1.1114   -8.4938   -2.0754 C   0  0  0  0  0  0
   -1.1078   -9.9051   -2.4826 C   0  0  0  0  0  0
    0.1130  -10.2980   -2.6883 N   0  0  0  0  0  0
    0.8509   -9.1522   -2.4133 C   0  0  0  0  0  0
    0.1922   -8.0840   -2.0554 N   0  5  0  0  0  0
   -2.2642  -10.6271   -2.6042 N   0  0  0  0  0  0
   -3.3450   -9.9593   -2.3304 C   0  0  0  0  0  0
   -3.4156   -8.6416   -1.9447 N   0  0  0  0  0  0
   -5.4621   -5.3095    1.7110 H   0  0  0  0  0  0
   -6.0447   -5.5958    0.0361 H   0  0  0  0  0  0
   -5.0679   -4.1353    0.4100 H   0  0  0  0  0  0
   -3.1171   -5.5759    0.9410 H   0  0  0  0  0  0
   -4.0938   -7.0364    0.5671 H   0  0  0  0  0  0
   -1.3617    1.3100   -1.6059 H   0  0  0  0  0  0
    0.0023   -0.0008   -0.0026 H   0  0  0  0  0  0
   -0.4468   -2.4048    0.3338 H   0  0  0  0  0  0
   -6.6935   -3.3344   -2.5974 H   0  0  0  0  0  0
   -8.3420   -4.5709   -3.9621 H   0  0  0  0  0  0
   -7.6051   -6.4425   -5.4134 H   0  0  0  0  0  0
   -5.2087   -7.0771   -5.4987 H   0  0  0  0  0  0
   -3.5499   -5.8495   -4.1396 H   0  0  0  0  0  0
    1.9481   -9.1667   -2.5001 H   0  0  0  0  0  0
   -4.3338  -10.4397   -2.3949 H   0  0  0  0  0  0
   -2.2239  -11.6825   -2.9118 H   0  0  0  0  0  0
   -1.3826   -5.9759   -1.3290 H   0  0  0  0  0  0
  1  2  1  0  0  0
  1 33  1  0  0  0
  1 34  1  0  0  0
  1 35  1  0  0  0
  2  3  1  0  0  0
  2 36  1  0  0  0
  2 37  1  0  0  0
  3  4  1  0  0  0
  3  5  1  0  0  0
  3 23  1  0  0  0
  5 16  1  0  0  0
  5  6  2  0  0  0
  6  7  1  0  0  0
  7 12  2  0  0  0
  7  8  1  0  0  0
  8  9  2  0  0  0
  8 14  1  0  0  0
  9 10  1  0  0  0
  9 13  1  0  0  0
 10 11  2  0  0  0
 10 38  1  0  0  0
 11 12  1  0  0  0
 11 39  1  0  0  0
 12 40  1  0  0  0
 14 15  2  0  0  0
 14 16  1  0  0  0
 16 17  1  0  0  0
 17 22  2  0  0  0
 17 18  1  0  0  0
 18 19  2  0  0  0
 18 41  1  0  0  0
 19 20  1  0  0  0
 19 42  1  0  0  0
 20 21  2  0  0  0
 20 43  1  0  0  0
 21 22  1  0  0  0
 21 44  1  0  0  0
 22 45  1  0  0  0
 23 24  2  0  0  0
 23 49  1  0  0  0
 24 32  1  0  0  0
 24 25  1  0  0  0
 25 29  1  0  0  0
 25 26  2  0  0  0
 26 27  1  0  0  0
 26 30  1  0  0  0
 27 28  2  0  0  0
 28 29  1  0  0  0
 28 46  1  0  0  0
 30 31  1  0  0  0
 30 48  1  0  0  0
 31 32  2  0  0  0
 31 47  1  0  0  0
M  CHG  2  23   1  29  -1
M  END
> <s_m_source_file>
/Users/choderaj/github/choderalab/mcce-charges/mcce-charges.jchodera/epik_inhibitors/output/Idelalisib/Idelalisib-input.mol2

> <i_m_source_file_index>
1

> <r_lp_tautomer_probability>
0.00222395749598869

> <r_epik_Ionization_Penalty>
  8.6505

> <r_epik_Ionization_Penalty_Charging>
  3.5862

> <r_epik_Ionization_Penalty_Neutral>
  5.0643

> <r_epik_State_Penalty>
  4.3533

> <i_epik_Tot_Q>
0

> <s_epik_Chemistry_Notes>
This compound has an imine and may undergo hydrolysis.

$$$$
5-fluoro-3-phenyl-2-[(1~{S})-1-(1~{H}-purin-6-ylamino)propyl]quinazolin-4-one
                    3D
 Structure written by MMmdl.
 48 52  0  0  1  0            999 V2000
   -5.2180   -5.1996    0.6441 C   0  0  0  0  0  0
   -3.9438   -5.9721    0.3330 C   0  0  0  0  0  0
   -3.5422   -5.8650   -1.1344 C   0  0  1  0  0  0
   -4.3471   -6.3375   -1.7166 H   0  0  0  0  0  0
   -3.2684   -4.4243   -1.5152 C   0  0  0  0  0  0
   -2.3191   -3.8360   -0.8542 N   0  0  0  0  0  0
   -2.0751   -2.4788   -1.0864 C   0  0  0  0  0  0
   -2.8340   -1.7334   -1.9885 C   0  0  0  0  0  0
   -2.5800   -0.3700   -2.1802 C   0  0  0  0  0  0
   -1.5594    0.2518   -1.4623 C   0  0  0  0  0  0
   -0.7952   -0.4837   -0.5597 C   0  0  0  0  0  0
   -1.0530   -1.8424   -0.3725 C   0  0  0  0  0  0
   -3.3006    0.3611   -3.0422 F   0  0  0  0  0  0
   -3.8939   -2.4176   -2.7585 C   0  0  0  0  0  0
   -4.5129   -1.7696   -3.5995 O   0  0  0  0  0  0
   -4.0507   -3.7930   -2.4853 N   0  0  0  0  0  0
   -5.0119   -4.5105   -3.2769 C   0  0  0  0  0  0
   -6.3595   -4.1535   -3.2293 C   0  0  0  0  0  0
   -7.2927   -4.8487   -3.9984 C   0  0  0  0  0  0
   -6.8784   -5.9009   -4.8150 C   0  0  0  0  0  0
   -5.5308   -6.2580   -4.8625 C   0  0  0  0  0  0
   -4.5976   -5.5628   -4.0934 C   0  0  0  0  0  0
   -2.3142   -6.5528   -1.4252 N   0  0  0  0  0  0
   -2.2705   -7.8323   -1.7974 C   0  0  0  0  0  0
   -1.1114   -8.4938   -2.0754 C   0  0  0  0  0  0
   -1.1078   -9.9051   -2.4826 C   0  0  0  0  0  0
    0.1130  -10.2980   -2.6883 N   0  5  0  0  0  0
    0.8509   -9.1522   -2.4133 C   0  0  0  0  0  0
    0.1922   -8.0840   -2.0554 N   0  0  0  0  0  0
   -2.2642  -10.6271   -2.6042 N   0  0  0  0  0  0
   -3.3450   -9.9593   -2.3304 C   0  0  0  0  0  0
   -3.4156   -8.6416   -1.9447 N   0  0  0  0  0  0
   -5.4621   -5.3095    1.7110 H   0  0  0  0  0  0
   -6.0447   -5.5958    0.0361 H   0  0  0  0  0  0
   -5.0679   -4.1353    0.4100 H   0  0  0  0  0  0
   -3.1171   -5.5759    0.9410 H   0  0  0  0  0  0
   -4.0938   -7.0364    0.5671 H   0  0  0  0  0  0
   -1.3617    1.3100   -1.6059 H   0  0  0  0  0  0
    0.0023   -0.0008   -0.0026 H   0  0  0  0  0  0
   -0.4468   -2.4048    0.3338 H   0  0  0  0  0  0
   -6.6935   -3.3344   -2.5974 H   0  0  0  0  0  0
   -8.3420   -4.5709   -3.9621 H   0  0  0  0  0  0
   -7.6051   -6.4425   -5.4134 H   0  0  0  0  0  0
   -5.2087   -7.0771   -5.4987 H   0  0  0  0  0  0
   -3.5499   -5.8495   -4.1396 H   0  0  0  0  0  0
   -1.3541   -6.0220   -1.3445 H   0  0  0  0  0  0
    1.9481   -9.1667   -2.5001 H   0  0  0  0  0  0
   -4.3338  -10.4397   -2.3949 H   0  0  0  0  0  0
  1  2  1  0  0  0
  1 33  1  0  0  0
  1 34  1  0  0  0
  1 35  1  0  0  0
  2  3  1  0  0  0
  2 36  1  0  0  0
  2 37  1  0  0  0
  3  4  1  0  0  0
  3  5  1  0  0  0
  3 23  1  0  0  0
  5 16  1  0  0  0
  5  6  2  0  0  0
  6  7  1  0  0  0
  7 12  2  0  0  0
  7  8  1  0  0  0
  8  9  2  0  0  0
  8 14  1  0  0  0
  9 10  1  0  0  0
  9 13  1  0  0  0
 10 11  2  0  0  0
 10 38  1  0  0  0
 11 12  1  0  0  0
 11 39  1  0  0  0
 12 40  1  0  0  0
 14 15  2  0  0  0
 14 16  1  0  0  0
 16 17  1  0  0  0
 17 22  2  0  0  0
 17 18  1  0  0  0
 18 19  2  0  0  0
 18 41  1  0  0  0
 19 20  1  0  0  0
 19 42  1  0  0  0
 20 21  2  0  0  0
 20 43  1  0  0  0
 21 22  1  0  0  0
 21 44  1  0  0  0
 22 45  1  0  0  0
 23 24  1  0  0  0
 23 46  1  0  0  0
 24 32  1  0  0  0
 24 25  2  0  0  0
 25 29  1  0  0  0
 25 26  1  0  0  0
 26 27  1  0  0  0
 26 30  2  0  0  0
 27 28  1  0  0  0
 28 29  2  0  0  0
 28 47  1  0  0  0
 30 31  1  0  0  0
 31 32  2  0  0  0
 31 48  1  0  0  0
M  CHG  1  27  -1
M  END
> <s_m_source_file>
/Users/choderaj/github/choderalab/mcce-charges/mcce-charges.jchodera/epik_inhibitors/output/Idelalisib/Idelalisib-input.mol2

> <i_m_source_file_index>
1

> <r_epik_Ionization_Penalty>
  7.0618

> <r_epik_Ionization_Penalty_Charging>
  3.2159

> <r_epik_Ionization_Penalty_Neutral>
  3.8458

> <r_epik_State_Penalty>
  4.9435

> <i_epik_Tot_Q>
-1

$$$$
5-fluoro-3-phenyl-2-[(1~{S})-1-(1~{H}-purin-6-ylamino)propyl]quinazolin-4-one
                    3D
 Structure written by MMmdl.
 49 53  0  0  1  0            999 V2000
   -5.2180   -5.1996    0.6441 C   0  0  0  0  0  0
   -3.9438   -5.9721    0.3330 C   0  0  0  0  0  0
   -3.5422   -5.8650   -1.1344 C   0  0  1  0  0  0
   -4.3471   -6.3375   -1.7166 H   0  0  0  0  0  0
   -3.2684   -4.4243   -1.5152 C   0  0  0  0  0  0
   -2.3191   -3.8360   -0.8542 N   0  0  0  0  0  0
   -2.0751   -2.4788   -1.0864 C   0  0  0  0  0  0
   -2.8340   -1.7334   -1.9885 C   0  0  0  0  0  0
   -2.5800   -0.3700   -2.1802 C   0  0  0  0  0  0
   -1.5594    0.2518   -1.4623 C   0  0  0  0  0  0
   -0.7952   -0.4837   -0.5597 C   0  0  0  0  0  0
   -1.0530   -1.8424   -0.3725 C   0  0  0  0  0  0
   -3.3006    0.3611   -3.0422 F   0  0  0  0  0  0
   -3.8939   -2.4176   -2.7585 C   0  0  0  0  0  0
   -4.5129   -1.7696   -3.5995 O   0  0  0  0  0  0
   -4.0507   -3.7930   -2.4853 N   0  0  0  0  0  0
   -5.0119   -4.5105   -3.2769 C   0  0  0  0  0  0
   -6.3595   -4.1535   -3.2293 C   0  0  0  0  0  0
   -7.2927   -4.8487   -3.9984 C   0  0  0  0  0  0
   -6.8784   -5.9009   -4.8150 C   0  0  0  0  0  0
   -5.5308   -6.2580   -4.8625 C   0  0  0  0  0  0
   -4.5976   -5.5628   -4.0934 C   0  0  0  0  0  0
   -2.3142   -6.5528   -1.4252 N   0  0  0  0  0  0
   -2.2705   -7.8323   -1.7974 C   0  0  0  0  0  0
   -1.1114   -8.4938   -2.0754 C   0  0  0  0  0  0
   -1.1078   -9.9051   -2.4826 C   0  0  0  0  0  0
    0.1130  -10.2980   -2.6883 N   0  0  0  0  0  0
    0.8509   -9.1522   -2.4133 C   0  0  0  0  0  0
    0.1922   -8.0840   -2.0554 N   0  0  0  0  0  0
   -2.2642  -10.6271   -2.6042 N   0  0  0  0  0  0
   -3.3450   -9.9593   -2.3304 C   0  0  0  0  0  0
   -3.4156   -8.6416   -1.9447 N   0  0  0  0  0  0
   -5.4621   -5.3095    1.7110 H   0  0  0  0  0  0
   -6.0447   -5.5958    0.0361 H   0  0  0  0  0  0
   -5.0679   -4.1353    0.4100 H   0  0  0  0  0  0
   -3.1171   -5.5759    0.9410 H   0  0  0  0  0  0
   -4.0938   -7.0364    0.5671 H   0  0  0  0  0  0
   -1.3617    1.3100   -1.6059 H   0  0  0  0  0  0
    0.0023   -0.0008   -0.0026 H   0  0  0  0  0  0
   -0.4468   -2.4048    0.3338 H   0  0  0  0  0  0
   -6.6935   -3.3344   -2.5974 H   0  0  0  0  0  0
   -8.3420   -4.5709   -3.9621 H   0  0  0  0  0  0
   -7.6051   -6.4425   -5.4134 H   0  0  0  0  0  0
   -5.2087   -7.0771   -5.4987 H   0  0  0  0  0  0
   -3.5499   -5.8495   -4.1396 H   0  0  0  0  0  0
    1.9481   -9.1667   -2.5001 H   0  0  0  0  0  0
   -4.3338  -10.4397   -2.3949 H   0  0  0  0  0  0
   -4.4138   -8.2231   -1.7486 H   0  0  0  0  0  0
   -1.3541   -6.0220   -1.3445 H   0  0  0  0  0  0
  1  2  1  0  0  0
  1 33  1  0  0  0
  1 34  1  0  0  0
  1 35  1  0  0  0
  2  3  1  0  0  0
  2 36  1  0  0  0
  2 37  1  0  0  0
  3  4  1  0  0  0
  3  5  1  0  0  0
  3 23  1  0  0  0
  5 16  1  0  0  0
  5  6  2  0  0  0
  6  7  1  0  0  0
  7 12  2  0  0  0
  7  8  1  0  0  0
  8  9  2  0  0  0
  8 14  1  0  0  0
  9 10  1  0  0  0
  9 13  1  0  0  0
 10 11  2  0  0  0
 10 38  1  0  0  0
 11 12  1  0  0  0
 11 39  1  0  0  0
 12 40  1  0  0  0
 14 15  2  0  0  0
 14 16  1  0  0  0
 16 17  1  0  0  0
 17 22  2  0  0  0
 17 18  1  0  0  0
 18 19  2  0  0  0
 18 41  1  0  0  0
 19 20  1  0  0  0
 19 42  1  0  0  0
 20 21  2  0  0  0
 20 43  1  0  0  0
 21 22  1  0  0  0
 21 44  1  0  0  0
 22 45  1  0  0  0
 23 24  1  0  0  0
 23 49  1  0  0  0
 24 32  1  0  0  0
 24 25  2  0  0  0
 25 29  1  0  0  0
 25 26  1  0  0  0
 26 27  2  0  0  0
 26 30  1  0  0  0
 27 28  1  0  0  0
 28 29  2  0  0  0
 28 46  1  0  0  0
 30 31  2  0  0  0
 31 32  1  0  0  0
 31 47  1  0  0  0
 32 48  1  0  0  0
M  END
> <s_m_source_file>
/Users/choderaj/github/choderalab/mcce-charges/mcce-charges.jchodera/epik_inhibitors/output/Idelalisib/Idelalisib-input.mol2

> <i_m_source_file_index>
1

> <r_lp_tautomer_probability>
0.000271894803578834

> <r_epik_Ionization_Penalty>
  2.1466

> <r_epik_Ionization_Penalty_Charging>
  0.0000

> <r_epik_Ionization_Penalty_Neutral>
  2.1466

> <r_epik_State_Penalty>
  5.3151

> <i_epik_Tot_Q>
0

$$$$
5-fluoro-3-phenyl-2-[(1~{S})-1-(1~{H}-purin-6-ylamino)propyl]quinazolin-4-one
                    3D
 Structure written by MMmdl.
 50 54  0  0  1  0            999 V2000
   -5.2180   -5.1996    0.6441 C   0  0  0  0  0  0
   -3.9438   -5.9721    0.3330 C   0  0  0  0  0  0
   -3.5422   -5.8650   -1.1344 C   0  0  1  0  0  0
   -4.3471   -6.3375   -1.7166 H   0  0  0  0  0  0
   -3.2684   -4.4243   -1.5152 C   0  0  0  0  0  0
   -2.3191   -3.8360   -0.8542 N   0  0  0  0  0  0
   -2.0751   -2.4788   -1.0864 C   0  0  0  0  0  0
   -2.8340   -1.7334   -1.9885 C   0  0  0  0  0  0
   -2.5800   -0.3700   -2.1802 C   0  0  0  0  0  0
   -1.5594    0.2518   -1.4623 C   0  0  0  0  0  0
   -0.7952   -0.4837   -0.5597 C   0  0  0  0  0  0
   -1.0530   -1.8424   -0.3725 C   0  0  0  0  0  0
   -3.3006    0.3611   -3.0422 F   0  0  0  0  0  0
   -3.8939   -2.4176   -2.7585 C   0  0  0  0  0  0
   -4.5129   -1.7696   -3.5995 O   0  0  0  0  0  0
   -4.0507   -3.7930   -2.4853 N   0  0  0  0  0  0
   -5.0119   -4.5105   -3.2769 C   0  0  0  0  0  0
   -6.3595   -4.1535   -3.2293 C   0  0  0  0  0  0
   -7.2927   -4.8487   -3.9984 C   0  0  0  0  0  0
   -6.8784   -5.9009   -4.8150 C   0  0  0  0  0  0
   -5.5308   -6.2580   -4.8625 C   0  0  0  0  0  0
   -4.5976   -5.5628   -4.0934 C   0  0  0  0  0  0
   -2.3142   -6.5528   -1.4252 N   0  0  0  0  0  0
   -2.2705   -7.8323   -1.7974 C   0  0  0  0  0  0
   -1.1114   -8.4938   -2.0754 C   0  0  0  0  0  0
   -1.1078   -9.9051   -2.4826 C   0  0  0  0  0  0
    0.1130  -10.2980   -2.6883 N   0  0  0  0  0  0
    0.8509   -9.1522   -2.4133 C   0  0  0  0  0  0
    0.1922   -8.0840   -2.0554 N   0  0  0  0  0  0
   -2.2642  -10.6271   -2.6042 N   0  0  0  0  0  0
   -3.3450   -9.9593   -2.3304 C   0  0  0  0  0  0
   -3.4156   -8.6416   -1.9447 N   0  3  0  0  0  0
   -5.4621   -5.3095    1.7110 H   0  0  0  0  0  0
   -6.0447   -5.5958    0.0361 H   0  0  0  0  0  0
   -5.0679   -4.1353    0.4100 H   0  0  0  0  0  0
   -3.1171   -5.5759    0.9410 H   0  0  0  0  0  0
   -4.0938   -7.0364    0.5671 H   0  0  0  0  0  0
   -1.3617    1.3100   -1.6059 H   0  0  0  0  0  0
    0.0023   -0.0008   -0.0026 H   0  0  0  0  0  0
   -0.4468   -2.4048    0.3338 H   0  0  0  0  0  0
   -6.6935   -3.3344   -2.5974 H   0  0  0  0  0  0
   -8.3420   -4.5709   -3.9621 H   0  0  0  0  0  0
   -7.6051   -6.4425   -5.4134 H   0  0  0  0  0  0
   -5.2087   -7.0771   -5.4987 H   0  0  0  0  0  0
   -3.5499   -5.8495   -4.1396 H   0  0  0  0  0  0
   -1.3541   -6.0220   -1.3445 H   0  0  0  0  0  0
    1.9481   -9.1667   -2.5001 H   0  0  0  0  0  0
   -4.3338  -10.4397   -2.3949 H   0  0  0  0  0  0
   -4.4138   -8.2231   -1.7486 H   0  0  0  0  0  0
    0.3121  -11.3333   -3.0022 H   0  0  0  0  0  0
  1  2  1  0  0  0
  1 33  1  0  0  0
  1 34  1  0  0  0
  1 35  1  0  0  0
  2  3  1  0  0  0
  2 36  1  0  0  0
  2 37  1  0  0  0
  3  4  1  0  0  0
  3  5  1  0  0  0
  3 23  1  0  0  0
  5 16  1  0  0  0
  5  6  2  0  0  0
  6  7  1  0  0  0
  7 12  2  0  0  0
  7  8  1  0  0  0
  8  9  2  0  0  0
  8 14  1  0  0  0
  9 10  1  0  0  0
  9 13  1  0  0  0
 10 11  2  0  0  0
 10 38  1  0  0  0
 11 12  1  0  0  0
 11 39  1  0  0  0
 12 40  1  0  0  0
 14 15  2  0  0  0
 14 16  1  0  0  0
 16 17  1  0  0  0
 17 22  2  0  0  0
 17 18  1  0  0  0
 18 19  2  0  0  0
 18 41  1  0  0  0
 19 20  1  0  0  0
 19 42  1  0  0  0
 20 21  2  0  0  0
 20 43  1  0  0  0
 21 22  1  0  0  0
 21 44  1  0  0  0
 22 45  1  0  0  0
 23 24  1  0  0  0
 23 46  1  0  0  0
 24 32  1  0  0  0
 24 25  2  0  0  0
 25 29  1  0  0  0
 25 26  1  0  0  0
 26 27  1  0  0  0
 26 30  2  0  0  0
 27 28  1  0  0  0
 27 50  1  0  0  0
 28 29  2  0  0  0
 28 47  1  0  0  0
 30 31  1  0  0  0
 31 32  2  0  0  0
 31 48  1  0  0  0
 32 49  1  0  0  0
M  CHG  1  32   1
M  END
> <s_m_source_file>
/Users/choderaj/github/choderalab/mcce-charges/mcce-charges.jchodera/epik_inhibitors/output/Idelalisib/Idelalisib-input.mol2

> <i_m_source_file_index>
1

> <r_epik_Ionization_Penalty>
  6.9278

> <r_epik_Ionization_Penalty_Charging>
  4.4562

> <r_epik_Ionization_Penalty_Neutral>
  2.4715

> <r_epik_State_Penalty>
  5.4977

> <i_epik_Tot_Q>
1

$$$$
