@<TRIPOS>MOLECULE
5-fluoro-3-phenyl-2-[(1~{S})-1-(1~{H}-purin-6-ylamino)propyl]quinazolin-4-one
49   53    1
SMALL
USER_CHARGES


@<TRIPOS>ATOM
      1 C1         -5.2169   -5.2027    0.6501 C.3       1 IDE        -0.1002 
      2 C2         -3.9428   -5.9748    0.3377 C.3       1 IDE        -0.1058 
      3 C3         -3.5419   -5.8663   -1.1298 C.3       1 IDE         0.2139 
      4 H1         -4.3470   -6.3383   -1.7121 H         1 IDE         0.0676 
      5 C4         -3.2683   -4.4253   -1.5094 C.ar      1 IDE         0.4938 
      6 N1         -2.3187   -3.8375   -0.8483 N.2       1 IDE        -0.6356 
      7 C5         -2.0749   -2.4801   -1.0793 C.ar      1 IDE         0.2108 
      8 C6         -2.8343   -1.7339   -1.9804 C.ar      1 IDE        -0.2275 
      9 C7         -2.5804   -0.3703   -2.1710 C.ar      1 IDE         0.2034 
     10 C8         -1.5595    0.2509   -1.4530 C.ar      1 IDE        -0.1924 
     11 C9         -0.7949   -0.4854   -0.5514 C.ar      1 IDE        -0.0680 
     12 C10        -1.0526   -1.8443   -0.3653 C.ar      1 IDE        -0.1316 
     13 F1         -3.3014    0.3615   -3.0320 F         1 IDE        -0.1105 
     14 C11        -3.8945   -2.4175   -2.7506 C.ar      1 IDE         0.7173 
     15 O1         -4.5139   -1.7687   -3.5907 O.2       1 IDE        -0.5771 
     16 N2         -4.0511   -3.7931   -2.4786 N.pl3     1 IDE        -0.3237 
     17 C12        -5.0126   -4.5100   -3.2704 C.ar      1 IDE         0.0285 
     18 C13        -6.3602   -4.1531   -3.2219 C.ar      1 IDE        -0.1232 
     19 C14        -7.2937   -4.8476   -3.9912 C.ar      1 IDE        -0.1230 
     20 C15        -6.8797   -5.8990   -4.8090 C.ar      1 IDE        -0.1199 
     21 C16        -5.5321   -6.2560   -4.8574 C.ar      1 IDE        -0.1230 
     22 C17        -4.5986   -5.5615   -4.0881 C.ar      1 IDE        -0.1232 
     23 N3         -2.3139   -6.5538   -1.4218 N.pl3     1 IDE        -0.7651 
     24 C18        -2.2703   -7.8330   -1.7952 C.ar      1 IDE         0.4550 
     25 C19        -1.1113   -8.4941   -2.0743 C.ar      1 IDE        -0.2082 
     26 C20        -1.1078   -9.9051   -2.4826 C.ar      1 IDE         0.5756 
     27 N4          0.1130  -10.2980   -2.6883 N.pl3     1 IDE        -0.6495 
     28 C21         0.8509   -9.1521   -2.4137 C.ar      1 IDE         0.5273 
     29 N5          0.1923   -8.0842   -2.0546 N.2       1 IDE        -0.5848 
     30 N6         -2.2642  -10.6271   -2.6042 N.ar      1 IDE        -0.5899 
     31 C22        -3.3450   -9.9593   -2.3304 C.ar      1 IDE         0.5751 
     32 N7         -3.4154   -8.6422   -1.9425 N.ar      1 IDE        -0.7100 
     33 H2         -5.4606   -5.3135    1.7170 H         1 IDE         0.0467 
     34 H3         -6.0438   -5.5983    0.0420 H         1 IDE         0.0467 
     35 H4         -5.0670   -4.1382    0.4168 H         1 IDE         0.0467 
     36 H5         -3.1159   -5.5791    0.9457 H         1 IDE         0.0608 
     37 H6         -4.0926   -7.0393    0.5709 H         1 IDE         0.0608 
     38 H7         -1.3773    1.2254   -1.5841 H         1 IDE         0.1577 
     39 H8         -0.0605   -0.0407   -0.0386 H         1 IDE         0.1485 
     40 H9         -0.4967   -2.3650    0.2827 H         1 IDE         0.1673 
     41 H10        -6.6939   -3.3346   -2.5891 H         1 IDE         0.1460 
     42 H11        -8.3430   -4.5699   -3.9542 H         1 IDE         0.1418 
     43 H12        -7.6066   -6.4401   -5.4075 H         1 IDE         0.1413 
     44 H13        -5.2102   -7.0745   -5.4945 H         1 IDE         0.1418 
     45 H14        -3.5509   -5.8481   -4.1350 H         1 IDE         0.1460 
     46 H15         0.6255  -11.2222   -2.9936 H         1 IDE         0.4993 
     47 H16         1.8482   -9.1252   -2.4816 H         1 IDE         0.0604 
     48 H17        -4.1820  -10.4986   -2.4235 H         1 IDE         0.0602 
     49 H18        -1.3538   -6.0231   -1.3410 H         1 IDE         0.4517 
@<TRIPOS>BOND
     1    1    2 1    
     2    1   33 1    
     3    1   34 1    
     4    1   35 1    
     5    2    3 1    
     6    2   36 1    
     7    2   37 1    
     8    3    4 1    
     9    3    5 1    
    10    3   23 1    
    11    5   16 ar   
    12    5    6 ar   
    13    6    7 ar   
    14    7   12 ar   
    15    7    8 ar   
    16    8    9 ar   
    17    8   14 ar   
    18    9   10 ar   
    19    9   13 1    
    20   10   11 ar   
    21   10   38 1    
    22   11   12 ar   
    23   11   39 1    
    24   12   40 1    
    25   14   15 2    
    26   14   16 ar   
    27   16   17 1    
    28   17   22 ar   
    29   17   18 ar   
    30   18   19 ar   
    31   18   41 1    
    32   19   20 ar   
    33   19   42 1    
    34   20   21 ar   
    35   20   43 1    
    36   21   22 ar   
    37   21   44 1    
    38   22   45 1    
    39   23   24 1    
    40   23   49 1    
    41   24   32 ar   
    42   24   25 ar   
    43   25   29 ar   
    44   25   26 ar   
    45   26   27 ar   
    46   26   30 ar   
    47   27   28 ar   
    48   27   46 1    
    49   28   29 ar   
    50   28   47 1    
    51   30   31 ar   
    52   31   48 1    
    53   31   32 ar   
@<TRIPOS>SUBSTRUCTURE
     1 IDE         1 GROUP             0       ****    0 ROOT    
@<TRIPOS>MOLECULE
5-fluoro-3-phenyl-2-[(1~{S})-1-(1~{H}-purin-6-ylamino)propyl]quinazolin-4-one
48   52    1
SMALL
USER_CHARGES


@<TRIPOS>ATOM
      1 C1         -5.2169   -5.2027    0.6501 C.3       1 IDE        -0.1002 
      2 C2         -3.9428   -5.9748    0.3377 C.3       1 IDE        -0.1058 
      3 C3         -3.5419   -5.8663   -1.1298 C.3       1 IDE         0.2139 
      4 H1         -4.3470   -6.3383   -1.7121 H         1 IDE         0.0676 
      5 C4         -3.2683   -4.4253   -1.5094 C.ar      1 IDE         0.4938 
      6 N1         -2.3187   -3.8375   -0.8483 N.2       1 IDE        -0.6356 
      7 C5         -2.0749   -2.4801   -1.0793 C.ar      1 IDE         0.2108 
      8 C6         -2.8343   -1.7339   -1.9804 C.ar      1 IDE        -0.2275 
      9 C7         -2.5804   -0.3703   -2.1710 C.ar      1 IDE         0.2034 
     10 C8         -1.5595    0.2509   -1.4530 C.ar      1 IDE        -0.1924 
     11 C9         -0.7949   -0.4854   -0.5514 C.ar      1 IDE        -0.0680 
     12 C10        -1.0526   -1.8443   -0.3653 C.ar      1 IDE        -0.1316 
     13 F1         -3.3014    0.3615   -3.0320 F         1 IDE        -0.1105 
     14 C11        -3.8945   -2.4175   -2.7506 C.ar      1 IDE         0.7173 
     15 O1         -4.5139   -1.7687   -3.5907 O.2       1 IDE        -0.5771 
     16 N2         -4.0511   -3.7931   -2.4786 N.pl3     1 IDE        -0.3237 
     17 C12        -5.0126   -4.5100   -3.2704 C.ar      1 IDE         0.0285 
     18 C13        -6.3602   -4.1531   -3.2219 C.ar      1 IDE        -0.1232 
     19 C14        -7.2937   -4.8476   -3.9912 C.ar      1 IDE        -0.1230 
     20 C15        -6.8797   -5.8990   -4.8090 C.ar      1 IDE        -0.1199 
     21 C16        -5.5321   -6.2560   -4.8574 C.ar      1 IDE        -0.1230 
     22 C17        -4.5986   -5.5615   -4.0881 C.ar      1 IDE        -0.1232 
     23 N3         -2.3139   -6.5538   -1.4218 N.pl3     1 IDE        -0.7651 
     24 C18        -2.2703   -7.8330   -1.7952 C.ar      1 IDE         0.4550 
     25 C19        -1.1113   -8.4941   -2.0743 C.ar      1 IDE        -0.2082 
     26 C20        -1.1078   -9.9051   -2.4826 C.ar      1 IDE         0.5756 
     27 N4          0.1130  -10.2980   -2.6883 N.2       1 IDE        -0.6495 
     28 C21         0.8509   -9.1521   -2.4137 C.ar      1 IDE         0.5273 
     29 N5          0.1923   -8.0842   -2.0546 N.ar      1 IDE        -0.5848 
     30 N6         -2.2642  -10.6271   -2.6042 N.ar      1 IDE        -0.5899 
     31 C22        -3.3450   -9.9593   -2.3304 C.ar      1 IDE         0.5751 
     32 N7         -3.4154   -8.6422   -1.9425 N.ar      1 IDE        -0.7100 
     33 H2         -5.4606   -5.3135    1.7170 H         1 IDE         0.0467 
     34 H3         -6.0438   -5.5983    0.0420 H         1 IDE         0.0467 
     35 H4         -5.0670   -4.1382    0.4168 H         1 IDE         0.0467 
     36 H5         -3.1159   -5.5791    0.9457 H         1 IDE         0.0608 
     37 H6         -4.0926   -7.0393    0.5709 H         1 IDE         0.0608 
     38 H7         -1.3773    1.2254   -1.5841 H         1 IDE         0.1577 
     39 H8         -0.0605   -0.0407   -0.0386 H         1 IDE         0.1485 
     40 H9         -0.4967   -2.3650    0.2827 H         1 IDE         0.1673 
     41 H10        -6.6939   -3.3346   -2.5891 H         1 IDE         0.1460 
     42 H11        -8.3430   -4.5699   -3.9542 H         1 IDE         0.1418 
     43 H12        -7.6066   -6.4401   -5.4075 H         1 IDE         0.1413 
     44 H13        -5.2102   -7.0745   -5.4945 H         1 IDE         0.1418 
     45 H14        -3.5509   -5.8481   -4.1350 H         1 IDE         0.1460 
     46 H16         1.8482   -9.1252   -2.4816 H         1 IDE         0.0604 
     47 H17        -4.1820  -10.4986   -2.4235 H         1 IDE         0.0602 
     48 H18        -1.3538   -6.0231   -1.3410 H         1 IDE         0.4517 
@<TRIPOS>BOND
     1    1    2 1    
     2    1   33 1    
     3    1   34 1    
     4    1   35 1    
     5    2    3 1    
     6    2   36 1    
     7    2   37 1    
     8    3    4 1    
     9    3    5 1    
    10    3   23 1    
    11    5   16 ar   
    12    5    6 ar   
    13    6    7 ar   
    14    7   12 ar   
    15    7    8 ar   
    16    8    9 ar   
    17    8   14 ar   
    18    9   10 ar   
    19    9   13 1    
    20   10   11 ar   
    21   10   38 1    
    22   11   12 ar   
    23   11   39 1    
    24   12   40 1    
    25   14   15 2    
    26   14   16 ar   
    27   16   17 1    
    28   17   22 ar   
    29   17   18 ar   
    30   18   19 ar   
    31   18   41 1    
    32   19   20 ar   
    33   19   42 1    
    34   20   21 ar   
    35   20   43 1    
    36   21   22 ar   
    37   21   44 1    
    38   22   45 1    
    39   23   24 1    
    40   23   48 1    
    41   24   32 ar   
    42   24   25 ar   
    43   25   29 ar   
    44   25   26 ar   
    45   26   27 ar   
    46   26   30 ar   
    47   27   28 ar   
    48   28   29 ar   
    49   28   46 1    
    50   30   31 ar   
    51   31   47 1    
    52   31   32 ar   
@<TRIPOS>SUBSTRUCTURE
     1 IDE         1 GROUP             0       ****    0 ROOT    
@<TRIPOS>MOLECULE
5-fluoro-3-phenyl-2-[(1~{S})-1-(1~{H}-purin-6-ylamino)propyl]quinazolin-4-one
49   53    1
SMALL
USER_CHARGES


@<TRIPOS>ATOM
      1 C1         -5.2169   -5.2027    0.6501 C.3       1 IDE        -0.1002 
      2 C2         -3.9428   -5.9748    0.3377 C.3       1 IDE        -0.1058 
      3 C3         -3.5419   -5.8663   -1.1298 C.3       1 IDE         0.2139 
      4 H1         -4.3470   -6.3383   -1.7121 H         1 IDE         0.0676 
      5 C4         -3.2683   -4.4253   -1.5094 C.ar      1 IDE         0.4938 
      6 N1         -2.3187   -3.8375   -0.8483 N.2       1 IDE        -0.6356 
      7 C5         -2.0749   -2.4801   -1.0793 C.ar      1 IDE         0.2108 
      8 C6         -2.8343   -1.7339   -1.9804 C.ar      1 IDE        -0.2275 
      9 C7         -2.5804   -0.3703   -2.1710 C.ar      1 IDE         0.2034 
     10 C8         -1.5595    0.2509   -1.4530 C.ar      1 IDE        -0.1924 
     11 C9         -0.7949   -0.4854   -0.5514 C.ar      1 IDE        -0.0680 
     12 C10        -1.0526   -1.8443   -0.3653 C.ar      1 IDE        -0.1316 
     13 F1         -3.3014    0.3615   -3.0320 F         1 IDE        -0.1105 
     14 C11        -3.8945   -2.4175   -2.7506 C.ar      1 IDE         0.7173 
     15 O1         -4.5139   -1.7687   -3.5907 O.2       1 IDE        -0.5771 
     16 N2         -4.0511   -3.7931   -2.4786 N.pl3     1 IDE        -0.3237 
     17 C12        -5.0126   -4.5100   -3.2704 C.ar      1 IDE         0.0285 
     18 C13        -6.3602   -4.1531   -3.2219 C.ar      1 IDE        -0.1232 
     19 C14        -7.2937   -4.8476   -3.9912 C.ar      1 IDE        -0.1230 
     20 C15        -6.8797   -5.8990   -4.8090 C.ar      1 IDE        -0.1199 
     21 C16        -5.5321   -6.2560   -4.8574 C.ar      1 IDE        -0.1230 
     22 C17        -4.5986   -5.5615   -4.0881 C.ar      1 IDE        -0.1232 
     23 N3         -2.3139   -6.5538   -1.4218 N.pl3     1 IDE        -0.7651 
     24 C18        -2.2703   -7.8330   -1.7952 C.ar      1 IDE         0.4550 
     25 C19        -1.1113   -8.4941   -2.0743 C.ar      1 IDE        -0.2082 
     26 C20        -1.1078   -9.9051   -2.4826 C.ar      1 IDE         0.5756 
     27 N4          0.1130  -10.2980   -2.6883 N.2       1 IDE        -0.6495 
     28 C21         0.8509   -9.1521   -2.4137 C.ar      1 IDE         0.5273 
     29 N5          0.1923   -8.0842   -2.0546 N.pl3     1 IDE        -0.5848 
     30 N6         -2.2642  -10.6271   -2.6042 N.ar      1 IDE        -0.5899 
     31 C22        -3.3450   -9.9593   -2.3304 C.ar      1 IDE         0.5751 
     32 N7         -3.4154   -8.6422   -1.9425 N.ar      1 IDE        -0.7100 
     33 H2         -5.4606   -5.3135    1.7170 H         1 IDE         0.0467 
     34 H3         -6.0438   -5.5983    0.0420 H         1 IDE         0.0467 
     35 H4         -5.0670   -4.1382    0.4168 H         1 IDE         0.0467 
     36 H5         -3.1159   -5.5791    0.9457 H         1 IDE         0.0608 
     37 H6         -4.0926   -7.0393    0.5709 H         1 IDE         0.0608 
     38 H7         -1.3773    1.2254   -1.5841 H         1 IDE         0.1577 
     39 H8         -0.0605   -0.0407   -0.0386 H         1 IDE         0.1485 
     40 H9         -0.4967   -2.3650    0.2827 H         1 IDE         0.1673 
     41 H10        -6.6939   -3.3346   -2.5891 H         1 IDE         0.1460 
     42 H11        -8.3430   -4.5699   -3.9542 H         1 IDE         0.1418 
     43 H12        -7.6066   -6.4401   -5.4075 H         1 IDE         0.1413 
     44 H13        -5.2102   -7.0745   -5.4945 H         1 IDE         0.1418 
     45 H14        -3.5509   -5.8481   -4.1350 H         1 IDE         0.1460 
     46 H15         0.4394   -7.0497   -1.7739 H         1 IDE         0.4993 
     47 H16         1.8475   -9.1680   -2.4940 H         1 IDE         0.0604 
     48 H17        -4.1820  -10.4986   -2.4235 H         1 IDE         0.0602 
     49 H18        -1.3538   -6.0231   -1.3410 H         1 IDE         0.4517 
@<TRIPOS>BOND
     1    1    2 1    
     2    1   33 1    
     3    1   34 1    
     4    1   35 1    
     5    2    3 1    
     6    2   36 1    
     7    2   37 1    
     8    3    4 1    
     9    3    5 1    
    10    3   23 1    
    11    5   16 ar   
    12    5    6 ar   
    13    6    7 ar   
    14    7   12 ar   
    15    7    8 ar   
    16    8    9 ar   
    17    8   14 ar   
    18    9   10 ar   
    19    9   13 1    
    20   10   11 ar   
    21   10   38 1    
    22   11   12 ar   
    23   11   39 1    
    24   12   40 1    
    25   14   15 2    
    26   14   16 ar   
    27   16   17 1    
    28   17   22 ar   
    29   17   18 ar   
    30   18   19 ar   
    31   18   41 1    
    32   19   20 ar   
    33   19   42 1    
    34   20   21 ar   
    35   20   43 1    
    36   21   22 ar   
    37   21   44 1    
    38   22   45 1    
    39   23   24 1    
    40   23   49 1    
    41   24   32 ar   
    42   24   25 ar   
    43   25   29 ar   
    44   25   26 ar   
    45   26   27 ar   
    46   26   30 ar   
    47   27   28 ar   
    48   28   29 ar   
    49   28   47 1    
    50   29   46 1    
    51   30   31 ar   
    52   31   48 1    
    53   31   32 ar   
@<TRIPOS>SUBSTRUCTURE
     1 IDE         1 GROUP             0       ****    0 ROOT    
@<TRIPOS>MOLECULE
5-fluoro-3-phenyl-2-[(1~{S})-1-(1~{H}-purin-6-ylamino)propyl]quinazolin-4-one
49   53    1
SMALL
USER_CHARGES


@<TRIPOS>ATOM
      1 C1         -5.2179   -5.1978    0.6415 C.3       1 IDE        -0.1002 
      2 C2         -3.9437   -5.9704    0.3307 C.3       1 IDE        -0.1058 
      3 C3         -3.5424   -5.8643   -1.1369 C.3       1 IDE         0.2139 
      4 H1         -4.3473   -6.3372   -1.7186 H         1 IDE         0.0676 
      5 C4         -3.2688   -4.4238   -1.5187 C.ar      1 IDE         0.4938 
      6 N1         -2.3195   -3.8350   -0.8583 N.2       1 IDE        -0.6356 
      7 C5         -2.0756   -2.4779   -1.0915 C.ar      1 IDE         0.2108 
      8 C6         -2.8348   -1.7332   -1.9940 C.ar      1 IDE        -0.2275 
      9 C7         -2.5810   -0.3699   -2.1867 C.ar      1 IDE         0.2034 
     10 C8         -1.5603    0.2525   -1.4694 C.ar      1 IDE        -0.1924 
     11 C9         -0.7959   -0.4823   -0.5664 C.ar      1 IDE        -0.0680 
     12 C10        -1.0535   -1.8409   -0.3783 C.ar      1 IDE        -0.1316 
     13 F1         -3.3018    0.3605   -3.0490 F         1 IDE        -0.1105 
     14 C11        -3.8948   -2.4181   -2.7633 C.ar      1 IDE         0.7173 
     15 O1         -4.5140   -1.7707   -3.6046 O.2       1 IDE        -0.5771 
     16 N2         -4.0514   -3.7933   -2.4891 N.pl3     1 IDE        -0.3237 
     17 C12        -5.0127   -4.5114   -3.2800 C.ar      1 IDE         0.0285 
     18 C13        -6.3603   -4.1545   -3.2324 C.ar      1 IDE        -0.1232 
     19 C14        -7.2936   -4.8504   -4.0009 C.ar      1 IDE        -0.1230 
     20 C15        -6.8793   -5.9031   -4.8168 C.ar      1 IDE        -0.1199 
     21 C16        -5.5317   -6.2601   -4.8643 C.ar      1 IDE        -0.1230 
     22 C17        -4.5984   -5.5643   -4.0959 C.ar      1 IDE        -0.1232 
     23 N3         -2.3144   -6.5522   -1.4274 N.pl3     1 IDE        -0.7651 
     24 C18        -2.2706   -7.8319   -1.7988 C.ar      1 IDE         0.4550 
     25 C19        -1.1114   -8.4938   -2.0754 C.ar      1 IDE        -0.2082 
     26 C20        -1.1078   -9.9051   -2.4826 C.ar      1 IDE         0.5756 
     27 N4          0.1130  -10.2980   -2.6883 N.ar      1 IDE        -0.6495 
     28 C21         0.8509   -9.1522   -2.4133 C.ar      1 IDE         0.5273 
     29 N5          0.1922   -8.0840   -2.0554 N.ar      1 IDE        -0.5848 
     30 N6         -2.2641  -10.6274   -2.6033 N.pl3     1 IDE        -0.5899 
     31 C22        -3.3450   -9.9595   -2.3297 C.ar      1 IDE         0.5751 
     32 N7         -3.4156   -8.6415   -1.9451 N.2       1 IDE        -0.7100 
     33 H2         -5.4618   -5.3070    1.7085 H         1 IDE         0.0467 
     34 H3         -6.0446   -5.5945    0.0339 H         1 IDE         0.0467 
     35 H4         -5.0680   -4.1337    0.4066 H         1 IDE         0.0467 
     36 H5         -3.1170   -5.5737    0.9382 H         1 IDE         0.0608 
     37 H6         -4.0935   -7.0345    0.5656 H         1 IDE         0.0608 
     38 H7         -1.3781    1.2268   -1.6021 H         1 IDE         0.1577 
     39 H8         -0.0616   -0.0367   -0.0542 H         1 IDE         0.1485 
     40 H9         -0.4978   -2.3605    0.2707 H         1 IDE         0.1673 
     41 H10        -6.6942   -3.3350   -2.6010 H         1 IDE         0.1460 
     42 H11        -8.3429   -4.5727   -3.9645 H         1 IDE         0.1418 
     43 H12        -7.6061   -6.4452   -5.4147 H         1 IDE         0.1413 
     44 H13        -5.2096   -7.0796   -5.5000 H         1 IDE         0.1418 
     45 H14        -3.5507   -5.8509   -4.1421 H         1 IDE         0.1460 
     46 H15        -2.2238  -11.6830   -2.9100 H         1 IDE         0.4993 
     47 H16         1.8483   -9.1254   -2.4808 H         1 IDE         0.0604 
     48 H17        -4.1819  -10.4990   -2.4220 H         1 IDE         0.0602 
     49 H18        -1.3543   -6.0212   -1.3473 H         1 IDE         0.4517 
@<TRIPOS>BOND
     1    1    2 1    
     2    1   33 1    
     3    1   34 1    
     4    1   35 1    
     5    2    3 1    
     6    2   36 1    
     7    2   37 1    
     8    3    4 1    
     9    3    5 1    
    10    3   23 1    
    11    5   16 ar   
    12    5    6 ar   
    13    6    7 ar   
    14    7   12 ar   
    15    7    8 ar   
    16    8    9 ar   
    17    8   14 ar   
    18    9   10 ar   
    19    9   13 1    
    20   10   11 ar   
    21   10   38 1    
    22   11   12 ar   
    23   11   39 1    
    24   12   40 1    
    25   14   15 2    
    26   14   16 ar   
    27   16   17 1    
    28   17   22 ar   
    29   17   18 ar   
    30   18   19 ar   
    31   18   41 1    
    32   19   20 ar   
    33   19   42 1    
    34   20   21 ar   
    35   20   43 1    
    36   21   22 ar   
    37   21   44 1    
    38   22   45 1    
    39   23   24 1    
    40   23   49 1    
    41   24   32 ar   
    42   24   25 ar   
    43   25   29 ar   
    44   25   26 ar   
    45   26   27 ar   
    46   26   30 ar   
    47   27   28 ar   
    48   28   29 ar   
    49   28   47 1    
    50   30   31 ar   
    51   30   46 1    
    52   31   48 1    
    53   31   32 ar   
@<TRIPOS>SUBSTRUCTURE
     1 IDE         1 GROUP             0       ****    0 ROOT    
@<TRIPOS>MOLECULE
5-fluoro-3-phenyl-2-[(1~{S})-1-(1~{H}-purin-6-ylamino)propyl]quinazolin-4-one
49   53    1
SMALL
USER_CHARGES


@<TRIPOS>ATOM
      1 C1         -5.2180   -5.1996    0.6441 C.3       1 IDE        -0.1002 
      2 C2         -3.9438   -5.9721    0.3330 C.3       1 IDE        -0.1058 
      3 C3         -3.5422   -5.8650   -1.1344 C.3       1 IDE         0.2139 
      4 H1         -4.3471   -6.3375   -1.7166 H         1 IDE         0.0676 
      5 C4         -3.2684   -4.4243   -1.5152 C.ar      1 IDE         0.4938 
      6 N1         -2.3191   -3.8360   -0.8542 N.2       1 IDE        -0.6356 
      7 C5         -2.0751   -2.4788   -1.0864 C.ar      1 IDE         0.2108 
      8 C6         -2.8340   -1.7334   -1.9885 C.ar      1 IDE        -0.2275 
      9 C7         -2.5800   -0.3700   -2.1802 C.ar      1 IDE         0.2034 
     10 C8         -1.5594    0.2518   -1.4623 C.ar      1 IDE        -0.1924 
     11 C9         -0.7952   -0.4837   -0.5597 C.ar      1 IDE        -0.0680 
     12 C10        -1.0530   -1.8424   -0.3725 C.ar      1 IDE        -0.1316 
     13 F1         -3.3006    0.3611   -3.0422 F         1 IDE        -0.1105 
     14 C11        -3.8939   -2.4176   -2.7585 C.ar      1 IDE         0.7173 
     15 O1         -4.5129   -1.7696   -3.5995 O.2       1 IDE        -0.5771 
     16 N2         -4.0507   -3.7930   -2.4853 N.pl3     1 IDE        -0.3237 
     17 C12        -5.0119   -4.5105   -3.2769 C.ar      1 IDE         0.0285 
     18 C13        -6.3595   -4.1535   -3.2293 C.ar      1 IDE        -0.1232 
     19 C14        -7.2927   -4.8487   -3.9984 C.ar      1 IDE        -0.1230 
     20 C15        -6.8784   -5.9009   -4.8150 C.ar      1 IDE        -0.1199 
     21 C16        -5.5308   -6.2580   -4.8625 C.ar      1 IDE        -0.1230 
     22 C17        -4.5976   -5.5628   -4.0934 C.ar      1 IDE        -0.1232 
     23 N3         -2.3142   -6.5528   -1.4252 N.pl3     1 IDE        -0.7651 
     24 C18        -2.2705   -7.8323   -1.7974 C.ar      1 IDE         0.4550 
     25 C19        -1.1114   -8.4938   -2.0754 C.ar      1 IDE        -0.2082 
     26 C20        -1.1078   -9.9051   -2.4826 C.ar      1 IDE         0.5756 
     27 N4          0.1130  -10.2980   -2.6883 N.ar      1 IDE        -0.6495 
     28 C21         0.8509   -9.1522   -2.4133 C.ar      1 IDE         0.5273 
     29 N5          0.1922   -8.0840   -2.0554 N.ar      1 IDE        -0.5848 
     30 N6         -2.2642  -10.6271   -2.6042 N.2       1 IDE        -0.5899 
     31 C22        -3.3450   -9.9593   -2.3304 C.ar      1 IDE         0.5751 
     32 N7         -3.4156   -8.6416   -1.9447 N.pl3     1 IDE        -0.7100 
     33 H2         -5.4621   -5.3095    1.7110 H         1 IDE         0.0467 
     34 H3         -6.0447   -5.5958    0.0361 H         1 IDE         0.0467 
     35 H4         -5.0679   -4.1353    0.4100 H         1 IDE         0.0467 
     36 H5         -3.1171   -5.5759    0.9410 H         1 IDE         0.0608 
     37 H6         -4.0938   -7.0364    0.5671 H         1 IDE         0.0608 
     38 H7         -1.3617    1.3100   -1.6059 H         1 IDE         0.1577 
     39 H8          0.0023   -0.0008   -0.0026 H         1 IDE         0.1485 
     40 H9         -0.4468   -2.4048    0.3338 H         1 IDE         0.1673 
     41 H10        -6.6935   -3.3344   -2.5974 H         1 IDE         0.1460 
     42 H11        -8.3420   -4.5709   -3.9621 H         1 IDE         0.1418 
     43 H12        -7.6051   -6.4425   -5.4134 H         1 IDE         0.1413 
     44 H13        -5.2087   -7.0771   -5.4987 H         1 IDE         0.1418 
     45 H14        -3.5499   -5.8495   -4.1396 H         1 IDE         0.1460 
     46 H15        -1.3541   -6.0220   -1.3445 H         1 IDE         0.4993 
     47 H16         1.9481   -9.1667   -2.5001 H         1 IDE         0.0604 
     48 H17        -4.3338  -10.4397   -2.3949 H         1 IDE         0.0602 
     49 H18        -4.4138   -8.2231   -1.7486 H         1 IDE         0.4517 
@<TRIPOS>BOND
     1    1    2 1    
     2    1   33 1    
     3    1   34 1    
     4    1   35 1    
     5    2    3 1    
     6    2   36 1    
     7    2   37 1    
     8    3    4 1    
     9    3    5 1    
    10    3   23 1    
    11    5   16 ar   
    12    5    6 ar   
    13    6    7 ar   
    14    7   12 ar   
    15    7    8 ar   
    16    8    9 ar   
    17    8   14 ar   
    18    9   10 ar   
    19    9   13 1    
    20   10   11 ar   
    21   10   38 1    
    22   11   12 ar   
    23   11   39 1    
    24   12   40 1    
    25   14   15 2    
    26   14   16 ar   
    27   16   17 1    
    28   17   22 ar   
    29   17   18 ar   
    30   18   19 ar   
    31   18   41 1    
    32   19   20 ar   
    33   19   42 1    
    34   20   21 ar   
    35   20   43 1    
    36   21   22 ar   
    37   21   44 1    
    38   22   45 1    
    39   23   24 1    
    40   23   46 1    
    41   24   32 ar   
    42   24   25 ar   
    43   25   29 ar   
    44   25   26 ar   
    45   26   27 ar   
    46   26   30 ar   
    47   27   28 ar   
    48   28   29 ar   
    49   28   47 1    
    50   30   31 ar   
    51   31   32 ar   
    52   31   48 1    
    53   32   49 1    
@<TRIPOS>SUBSTRUCTURE
     1 IDE         1 GROUP             0       ****    0 ROOT    
@<TRIPOS>MOLECULE
5-fluoro-3-phenyl-2-[(1~{S})-1-(1~{H}-purin-6-ylamino)propyl]quinazolin-4-one
50   54    1
SMALL
USER_CHARGES


@<TRIPOS>ATOM
      1 C1         -5.2169   -5.2027    0.6501 C.3       1 IDE        -0.1002 
      2 C2         -3.9428   -5.9748    0.3377 C.3       1 IDE        -0.1058 
      3 C3         -3.5419   -5.8663   -1.1298 C.3       1 IDE         0.2139 
      4 H1         -4.3470   -6.3383   -1.7121 H         1 IDE         0.0676 
      5 C4         -3.2683   -4.4253   -1.5094 C.ar      1 IDE         0.4938 
      6 N1         -2.3187   -3.8375   -0.8483 N.2       1 IDE        -0.6356 
      7 C5         -2.0749   -2.4801   -1.0793 C.ar      1 IDE         0.2108 
      8 C6         -2.8343   -1.7339   -1.9804 C.ar      1 IDE        -0.2275 
      9 C7         -2.5804   -0.3703   -2.1710 C.ar      1 IDE         0.2034 
     10 C8         -1.5595    0.2509   -1.4530 C.ar      1 IDE        -0.1924 
     11 C9         -0.7949   -0.4854   -0.5514 C.ar      1 IDE        -0.0680 
     12 C10        -1.0526   -1.8443   -0.3653 C.ar      1 IDE        -0.1316 
     13 F1         -3.3014    0.3615   -3.0320 F         1 IDE        -0.1105 
     14 C11        -3.8945   -2.4175   -2.7506 C.ar      1 IDE         0.7173 
     15 O1         -4.5139   -1.7687   -3.5907 O.2       1 IDE        -0.5771 
     16 N2         -4.0511   -3.7931   -2.4786 N.pl3     1 IDE        -0.3237 
     17 C12        -5.0126   -4.5100   -3.2704 C.ar      1 IDE         0.0285 
     18 C13        -6.3602   -4.1531   -3.2219 C.ar      1 IDE        -0.1232 
     19 C14        -7.2937   -4.8476   -3.9912 C.ar      1 IDE        -0.1230 
     20 C15        -6.8797   -5.8990   -4.8090 C.ar      1 IDE        -0.1199 
     21 C16        -5.5321   -6.2560   -4.8574 C.ar      1 IDE        -0.1230 
     22 C17        -4.5986   -5.5615   -4.0881 C.ar      1 IDE        -0.1232 
     23 N3         -2.3139   -6.5538   -1.4218 N.pl3     1 IDE        -0.7651 
     24 C18        -2.2703   -7.8330   -1.7952 C.ar      1 IDE         0.4550 
     25 C19        -1.1113   -8.4941   -2.0743 C.ar      1 IDE        -0.2082 
     26 C20        -1.1078   -9.9051   -2.4826 C.ar      1 IDE         0.5756 
     27 N4          0.1130  -10.2980   -2.6883 N.pl3     1 IDE        -0.6495 
     28 C21         0.8509   -9.1521   -2.4137 C.ar      1 IDE         0.5273 
     29 N5          0.1923   -8.0842   -2.0546 N.2       1 IDE        -0.5848 
     30 N6         -2.2642  -10.6271   -2.6042 N.ar      1 IDE        -0.5899 
     31 C22        -3.3450   -9.9593   -2.3304 C.ar      1 IDE         0.5751 
     32 N7         -3.4154   -8.6422   -1.9425 N.pl3     1 IDE        -0.7100 
     33 H2         -5.4606   -5.3135    1.7170 H         1 IDE         0.0467 
     34 H3         -6.0438   -5.5983    0.0420 H         1 IDE         0.0467 
     35 H4         -5.0670   -4.1382    0.4168 H         1 IDE         0.0467 
     36 H5         -3.1159   -5.5791    0.9457 H         1 IDE         0.0608 
     37 H6         -4.0926   -7.0393    0.5709 H         1 IDE         0.0608 
     38 H7         -1.3773    1.2254   -1.5841 H         1 IDE         0.1577 
     39 H8         -0.0605   -0.0407   -0.0386 H         1 IDE         0.1485 
     40 H9         -0.4967   -2.3650    0.2827 H         1 IDE         0.1673 
     41 H10        -6.6939   -3.3346   -2.5891 H         1 IDE         0.1460 
     42 H11        -8.3430   -4.5699   -3.9542 H         1 IDE         0.1418 
     43 H12        -7.6066   -6.4401   -5.4075 H         1 IDE         0.1413 
     44 H13        -5.2102   -7.0745   -5.4945 H         1 IDE         0.1418 
     45 H14        -3.5509   -5.8481   -4.1350 H         1 IDE         0.1460 
     46 H15         0.6255  -11.2222   -2.9936 H         1 IDE         0.4993 
     47 H16         1.8482   -9.1252   -2.4816 H         1 IDE         0.0604 
     48 H17        -4.1820  -10.4986   -2.4235 H         1 IDE         0.0602 
     49 H18        -1.3538   -6.0231   -1.3410 H         1 IDE         0.4517 
     50 H50        -4.3924   -8.1818   -1.7341 H         1 IDE         0.0000 
@<TRIPOS>BOND
     1    1    2 1    
     2    1   33 1    
     3    1   34 1    
     4    1   35 1    
     5    2    3 1    
     6    2   36 1    
     7    2   37 1    
     8    3    4 1    
     9    3    5 1    
    10    3   23 1    
    11    5   16 ar   
    12    5    6 ar   
    13    6    7 ar   
    14    7   12 ar   
    15    7    8 ar   
    16    8    9 ar   
    17    8   14 ar   
    18    9   10 ar   
    19    9   13 1    
    20   10   11 ar   
    21   10   38 1    
    22   11   12 ar   
    23   11   39 1    
    24   12   40 1    
    25   14   15 2    
    26   14   16 ar   
    27   16   17 1    
    28   17   22 ar   
    29   17   18 ar   
    30   18   19 ar   
    31   18   41 1    
    32   19   20 ar   
    33   19   42 1    
    34   20   21 ar   
    35   20   43 1    
    36   21   22 ar   
    37   21   44 1    
    38   22   45 1    
    39   23   24 1    
    40   23   49 1    
    41   24   32 ar   
    42   24   25 ar   
    43   25   29 ar   
    44   25   26 ar   
    45   26   27 ar   
    46   26   30 ar   
    47   27   28 ar   
    48   27   46 1    
    49   28   29 ar   
    50   28   47 1    
    51   30   31 ar   
    52   31   48 1    
    53   31   32 ar   
    54   32   50 1    
@<TRIPOS>SUBSTRUCTURE
     1 IDE         1 GROUP             0       ****    0 ROOT    
@<TRIPOS>MOLECULE
5-fluoro-3-phenyl-2-[(1~{S})-1-(1~{H}-purin-6-ylamino)propyl]quinazolin-4-one
50   54    1
SMALL
USER_CHARGES


@<TRIPOS>ATOM
      1 C1         -5.2169   -5.2027    0.6501 C.3       1 IDE        -0.1002 
      2 C2         -3.9428   -5.9748    0.3377 C.3       1 IDE        -0.1058 
      3 C3         -3.5419   -5.8663   -1.1298 C.3       1 IDE         0.2139 
      4 H1         -4.3470   -6.3383   -1.7121 H         1 IDE         0.0676 
      5 C4         -3.2683   -4.4253   -1.5094 C.ar      1 IDE         0.4938 
      6 N1         -2.3187   -3.8375   -0.8483 N.2       1 IDE        -0.6356 
      7 C5         -2.0749   -2.4801   -1.0793 C.ar      1 IDE         0.2108 
      8 C6         -2.8343   -1.7339   -1.9804 C.ar      1 IDE        -0.2275 
      9 C7         -2.5804   -0.3703   -2.1710 C.ar      1 IDE         0.2034 
     10 C8         -1.5595    0.2509   -1.4530 C.ar      1 IDE        -0.1924 
     11 C9         -0.7949   -0.4854   -0.5514 C.ar      1 IDE        -0.0680 
     12 C10        -1.0526   -1.8443   -0.3653 C.ar      1 IDE        -0.1316 
     13 F1         -3.3014    0.3615   -3.0320 F         1 IDE        -0.1105 
     14 C11        -3.8945   -2.4175   -2.7506 C.ar      1 IDE         0.7173 
     15 O1         -4.5139   -1.7687   -3.5907 O.2       1 IDE        -0.5771 
     16 N2         -4.0511   -3.7931   -2.4786 N.pl3     1 IDE        -0.3237 
     17 C12        -5.0126   -4.5100   -3.2704 C.ar      1 IDE         0.0285 
     18 C13        -6.3602   -4.1531   -3.2219 C.ar      1 IDE        -0.1232 
     19 C14        -7.2937   -4.8476   -3.9912 C.ar      1 IDE        -0.1230 
     20 C15        -6.8797   -5.8990   -4.8090 C.ar      1 IDE        -0.1199 
     21 C16        -5.5321   -6.2560   -4.8574 C.ar      1 IDE        -0.1230 
     22 C17        -4.5986   -5.5615   -4.0881 C.ar      1 IDE        -0.1232 
     23 N3         -2.3139   -6.5538   -1.4218 N.pl3     1 IDE        -0.7651 
     24 C18        -2.2703   -7.8330   -1.7952 C.ar      1 IDE         0.4550 
     25 C19        -1.1113   -8.4941   -2.0743 C.ar      1 IDE        -0.2082 
     26 C20        -1.1078   -9.9051   -2.4826 C.ar      1 IDE         0.5756 
     27 N4          0.1130  -10.2980   -2.6883 N.pl3     1 IDE        -0.6495 
     28 C21         0.8509   -9.1521   -2.4137 C.ar      1 IDE         0.5273 
     29 N5          0.1923   -8.0842   -2.0546 N.pl3     1 IDE        -0.5848 
     30 N6         -2.2642  -10.6271   -2.6042 N.ar      1 IDE        -0.5899 
     31 C22        -3.3450   -9.9593   -2.3304 C.ar      1 IDE         0.5751 
     32 N7         -3.4154   -8.6422   -1.9425 N.ar      1 IDE        -0.7100 
     33 H2         -5.4606   -5.3135    1.7170 H         1 IDE         0.0467 
     34 H3         -6.0438   -5.5983    0.0420 H         1 IDE         0.0467 
     35 H4         -5.0670   -4.1382    0.4168 H         1 IDE         0.0467 
     36 H5         -3.1159   -5.5791    0.9457 H         1 IDE         0.0608 
     37 H6         -4.0926   -7.0393    0.5709 H         1 IDE         0.0608 
     38 H7         -1.3773    1.2254   -1.5841 H         1 IDE         0.1577 
     39 H8         -0.0605   -0.0407   -0.0386 H         1 IDE         0.1485 
     40 H9         -0.4967   -2.3650    0.2827 H         1 IDE         0.1673 
     41 H10        -6.6939   -3.3346   -2.5891 H         1 IDE         0.1460 
     42 H11        -8.3430   -4.5699   -3.9542 H         1 IDE         0.1418 
     43 H12        -7.6066   -6.4401   -5.4075 H         1 IDE         0.1413 
     44 H13        -5.2102   -7.0745   -5.4945 H         1 IDE         0.1418 
     45 H14        -3.5509   -5.8481   -4.1350 H         1 IDE         0.1460 
     46 H15         0.6255  -11.2222   -2.9936 H         1 IDE         0.4993 
     47 H16         1.8482   -9.1252   -2.4816 H         1 IDE         0.0604 
     48 H17        -4.1820  -10.4986   -2.4235 H         1 IDE         0.0602 
     49 H18        -1.3538   -6.0231   -1.3410 H         1 IDE         0.4517 
     50 H50         0.4394   -7.0497   -1.7739 H         1 IDE         0.0000 
@<TRIPOS>BOND
     1    1    2 1    
     2    1   33 1    
     3    1   34 1    
     4    1   35 1    
     5    2    3 1    
     6    2   36 1    
     7    2   37 1    
     8    3    4 1    
     9    3    5 1    
    10    3   23 1    
    11    5   16 ar   
    12    5    6 ar   
    13    6    7 ar   
    14    7   12 ar   
    15    7    8 ar   
    16    8    9 ar   
    17    8   14 ar   
    18    9   10 ar   
    19    9   13 1    
    20   10   11 ar   
    21   10   38 1    
    22   11   12 ar   
    23   11   39 1    
    24   12   40 1    
    25   14   15 2    
    26   14   16 ar   
    27   16   17 1    
    28   17   22 ar   
    29   17   18 ar   
    30   18   19 ar   
    31   18   41 1    
    32   19   20 ar   
    33   19   42 1    
    34   20   21 ar   
    35   20   43 1    
    36   21   22 ar   
    37   21   44 1    
    38   22   45 1    
    39   23   24 1    
    40   23   49 1    
    41   24   32 ar   
    42   24   25 ar   
    43   25   29 ar   
    44   25   26 ar   
    45   26   27 ar   
    46   26   30 ar   
    47   27   28 ar   
    48   27   46 1    
    49   28   29 ar   
    50   28   47 1    
    51   29   50 1    
    52   30   31 ar   
    53   31   48 1    
    54   31   32 ar   
@<TRIPOS>SUBSTRUCTURE
     1 IDE         1 GROUP             0       ****    0 ROOT    
@<TRIPOS>MOLECULE
5-fluoro-3-phenyl-2-[(1~{S})-1-(1~{H}-purin-6-ylamino)propyl]quinazolin-4-one
50   54    1
SMALL
USER_CHARGES


@<TRIPOS>ATOM
      1 C1         -5.2169   -5.2027    0.6501 C.3       1 IDE        -0.1002 
      2 C2         -3.9428   -5.9748    0.3377 C.3       1 IDE        -0.1058 
      3 C3         -3.5419   -5.8663   -1.1298 C.3       1 IDE         0.2139 
      4 H1         -4.3470   -6.3383   -1.7121 H         1 IDE         0.0676 
      5 C4         -3.2683   -4.4253   -1.5094 C.ar      1 IDE         0.4938 
      6 N1         -2.3187   -3.8375   -0.8483 N.pl3     1 IDE        -0.6356 
      7 C5         -2.0749   -2.4801   -1.0793 C.ar      1 IDE         0.2108 
      8 C6         -2.8343   -1.7339   -1.9804 C.ar      1 IDE        -0.2275 
      9 C7         -2.5804   -0.3703   -2.1710 C.ar      1 IDE         0.2034 
     10 C8         -1.5595    0.2509   -1.4530 C.ar      1 IDE        -0.1924 
     11 C9         -0.7949   -0.4854   -0.5514 C.ar      1 IDE        -0.0680 
     12 C10        -1.0526   -1.8443   -0.3653 C.ar      1 IDE        -0.1316 
     13 F1         -3.3014    0.3615   -3.0320 F         1 IDE        -0.1105 
     14 C11        -3.8945   -2.4175   -2.7506 C.ar      1 IDE         0.7173 
     15 O1         -4.5139   -1.7687   -3.5907 O.2       1 IDE        -0.5771 
     16 N2         -4.0511   -3.7931   -2.4786 N.pl3     1 IDE        -0.3237 
     17 C12        -5.0126   -4.5100   -3.2704 C.ar      1 IDE         0.0285 
     18 C13        -6.3602   -4.1531   -3.2219 C.ar      1 IDE        -0.1232 
     19 C14        -7.2937   -4.8476   -3.9912 C.ar      1 IDE        -0.1230 
     20 C15        -6.8797   -5.8990   -4.8090 C.ar      1 IDE        -0.1199 
     21 C16        -5.5321   -6.2560   -4.8574 C.ar      1 IDE        -0.1230 
     22 C17        -4.5986   -5.5615   -4.0881 C.ar      1 IDE        -0.1232 
     23 N3         -2.3139   -6.5538   -1.4218 N.pl3     1 IDE        -0.7651 
     24 C18        -2.2703   -7.8330   -1.7952 C.ar      1 IDE         0.4550 
     25 C19        -1.1113   -8.4941   -2.0743 C.ar      1 IDE        -0.2082 
     26 C20        -1.1078   -9.9051   -2.4826 C.ar      1 IDE         0.5756 
     27 N4          0.1130  -10.2980   -2.6883 N.pl3     1 IDE        -0.6495 
     28 C21         0.8509   -9.1521   -2.4137 C.ar      1 IDE         0.5273 
     29 N5          0.1923   -8.0842   -2.0546 N.2       1 IDE        -0.5848 
     30 N6         -2.2642  -10.6271   -2.6042 N.ar      1 IDE        -0.5899 
     31 C22        -3.3450   -9.9593   -2.3304 C.ar      1 IDE         0.5751 
     32 N7         -3.4154   -8.6422   -1.9425 N.ar      1 IDE        -0.7100 
     33 H2         -5.4606   -5.3135    1.7170 H         1 IDE         0.0467 
     34 H3         -6.0438   -5.5983    0.0420 H         1 IDE         0.0467 
     35 H4         -5.0670   -4.1382    0.4168 H         1 IDE         0.0467 
     36 H5         -3.1159   -5.5791    0.9457 H         1 IDE         0.0608 
     37 H6         -4.0926   -7.0393    0.5709 H         1 IDE         0.0608 
     38 H7         -1.3773    1.2254   -1.5841 H         1 IDE         0.1577 
     39 H8         -0.0605   -0.0407   -0.0386 H         1 IDE         0.1485 
     40 H9         -0.4967   -2.3650    0.2827 H         1 IDE         0.1673 
     41 H10        -6.6939   -3.3346   -2.5891 H         1 IDE         0.1460 
     42 H11        -8.3430   -4.5699   -3.9542 H         1 IDE         0.1418 
     43 H12        -7.6066   -6.4401   -5.4075 H         1 IDE         0.1413 
     44 H13        -5.2102   -7.0745   -5.4945 H         1 IDE         0.1418 
     45 H14        -3.5509   -5.8481   -4.1350 H         1 IDE         0.1460 
     46 H15         0.6255  -11.2222   -2.9936 H         1 IDE         0.4993 
     47 H16         1.8482   -9.1252   -2.4816 H         1 IDE         0.0604 
     48 H17        -4.1820  -10.4986   -2.4235 H         1 IDE         0.0602 
     49 H18        -1.3538   -6.0231   -1.3410 H         1 IDE         0.4517 
     50 H50        -1.7215   -4.4065   -0.1206 H         1 IDE         0.0000 
@<TRIPOS>BOND
     1    1    2 1    
     2    1   33 1    
     3    1   34 1    
     4    1   35 1    
     5    2    3 1    
     6    2   36 1    
     7    2   37 1    
     8    3    4 1    
     9    3    5 1    
    10    3   23 1    
    11    5   16 ar   
    12    5    6 ar   
    13    6    7 ar   
    14    6   50 1    
    15    7   12 ar   
    16    7    8 ar   
    17    8    9 ar   
    18    8   14 ar   
    19    9   10 ar   
    20    9   13 1    
    21   10   11 ar   
    22   10   38 1    
    23   11   12 ar   
    24   11   39 1    
    25   12   40 1    
    26   14   15 2    
    27   14   16 ar   
    28   16   17 1    
    29   17   22 ar   
    30   17   18 ar   
    31   18   19 ar   
    32   18   41 1    
    33   19   20 ar   
    34   19   42 1    
    35   20   21 ar   
    36   20   43 1    
    37   21   22 ar   
    38   21   44 1    
    39   22   45 1    
    40   23   24 1    
    41   23   49 1    
    42   24   32 ar   
    43   24   25 ar   
    44   25   29 ar   
    45   25   26 ar   
    46   26   27 ar   
    47   26   30 ar   
    48   27   28 ar   
    49   27   46 1    
    50   28   29 ar   
    51   28   47 1    
    52   30   31 ar   
    53   31   48 1    
    54   31   32 ar   
@<TRIPOS>SUBSTRUCTURE
     1 IDE         1 GROUP             0       ****    0 ROOT    
@<TRIPOS>MOLECULE
5-fluoro-3-phenyl-2-[(1~{S})-1-(1~{H}-purin-6-ylamino)propyl]quinazolin-4-one
50   54    1
SMALL
USER_CHARGES


@<TRIPOS>ATOM
      1 C1         -5.2169   -5.2027    0.6501 C.3       1 IDE        -0.1002 
      2 C2         -3.9428   -5.9748    0.3377 C.3       1 IDE        -0.1058 
      3 C3         -3.5419   -5.8663   -1.1298 C.3       1 IDE         0.2139 
      4 H1         -4.3470   -6.3383   -1.7121 H         1 IDE         0.0676 
      5 C4         -3.2683   -4.4253   -1.5094 C.ar      1 IDE         0.4938 
      6 N1         -2.3187   -3.8375   -0.8483 N.2       1 IDE        -0.6356 
      7 C5         -2.0749   -2.4801   -1.0793 C.ar      1 IDE         0.2108 
      8 C6         -2.8343   -1.7339   -1.9804 C.ar      1 IDE        -0.2275 
      9 C7         -2.5804   -0.3703   -2.1710 C.ar      1 IDE         0.2034 
     10 C8         -1.5595    0.2509   -1.4530 C.ar      1 IDE        -0.1924 
     11 C9         -0.7949   -0.4854   -0.5514 C.ar      1 IDE        -0.0680 
     12 C10        -1.0526   -1.8443   -0.3653 C.ar      1 IDE        -0.1316 
     13 F1         -3.3014    0.3615   -3.0320 F         1 IDE        -0.1105 
     14 C11        -3.8945   -2.4175   -2.7506 C.ar      1 IDE         0.7173 
     15 O1         -4.5139   -1.7687   -3.5907 O.2       1 IDE        -0.5771 
     16 N2         -4.0511   -3.7931   -2.4786 N.pl3     1 IDE        -0.3237 
     17 C12        -5.0126   -4.5100   -3.2704 C.ar      1 IDE         0.0285 
     18 C13        -6.3602   -4.1531   -3.2219 C.ar      1 IDE        -0.1232 
     19 C14        -7.2937   -4.8476   -3.9912 C.ar      1 IDE        -0.1230 
     20 C15        -6.8797   -5.8990   -4.8090 C.ar      1 IDE        -0.1199 
     21 C16        -5.5321   -6.2560   -4.8574 C.ar      1 IDE        -0.1230 
     22 C17        -4.5986   -5.5615   -4.0881 C.ar      1 IDE        -0.1232 
     23 N3         -2.3139   -6.5538   -1.4218 N.pl3     1 IDE        -0.7651 
     24 C18        -2.2703   -7.8330   -1.7952 C.ar      1 IDE         0.4550 
     25 C19        -1.1113   -8.4941   -2.0743 C.ar      1 IDE        -0.2082 
     26 C20        -1.1078   -9.9051   -2.4826 C.ar      1 IDE         0.5756 
     27 N4          0.1130  -10.2980   -2.6883 N.2       1 IDE        -0.6495 
     28 C21         0.8509   -9.1521   -2.4137 C.ar      1 IDE         0.5273 
     29 N5          0.1923   -8.0842   -2.0546 N.pl3     1 IDE        -0.5848 
     30 N6         -2.2642  -10.6271   -2.6042 N.pl3     1 IDE        -0.5899 
     31 C22        -3.3450   -9.9593   -2.3304 C.ar      1 IDE         0.5751 
     32 N7         -3.4154   -8.6422   -1.9425 N.ar      1 IDE        -0.7100 
     33 H2         -5.4606   -5.3135    1.7170 H         1 IDE         0.0467 
     34 H3         -6.0438   -5.5983    0.0420 H         1 IDE         0.0467 
     35 H4         -5.0670   -4.1382    0.4168 H         1 IDE         0.0467 
     36 H5         -3.1159   -5.5791    0.9457 H         1 IDE         0.0608 
     37 H6         -4.0926   -7.0393    0.5709 H         1 IDE         0.0608 
     38 H7         -1.3773    1.2254   -1.5841 H         1 IDE         0.1577 
     39 H8         -0.0605   -0.0407   -0.0386 H         1 IDE         0.1485 
     40 H9         -0.4967   -2.3650    0.2827 H         1 IDE         0.1673 
     41 H10        -6.6939   -3.3346   -2.5891 H         1 IDE         0.1460 
     42 H11        -8.3430   -4.5699   -3.9542 H         1 IDE         0.1418 
     43 H12        -7.6066   -6.4401   -5.4075 H         1 IDE         0.1413 
     44 H13        -5.2102   -7.0745   -5.4945 H         1 IDE         0.1418 
     45 H14        -3.5509   -5.8481   -4.1350 H         1 IDE         0.1460 
     46 H15         0.4394   -7.0497   -1.7739 H         1 IDE         0.4993 
     47 H16         1.8475   -9.1680   -2.4940 H         1 IDE         0.0604 
     48 H17        -4.1820  -10.4986   -2.4235 H         1 IDE         0.0602 
     49 H18        -1.3538   -6.0231   -1.3410 H         1 IDE         0.4517 
     50 H50        -2.2239  -11.6825   -2.9117 H         1 IDE         0.0000 
@<TRIPOS>BOND
     1    1    2 1    
     2    1   33 1    
     3    1   34 1    
     4    1   35 1    
     5    2    3 1    
     6    2   36 1    
     7    2   37 1    
     8    3    4 1    
     9    3    5 1    
    10    3   23 1    
    11    5   16 ar   
    12    5    6 ar   
    13    6    7 ar   
    14    7   12 ar   
    15    7    8 ar   
    16    8    9 ar   
    17    8   14 ar   
    18    9   10 ar   
    19    9   13 1    
    20   10   11 ar   
    21   10   38 1    
    22   11   12 ar   
    23   11   39 1    
    24   12   40 1    
    25   14   15 2    
    26   14   16 ar   
    27   16   17 1    
    28   17   22 ar   
    29   17   18 ar   
    30   18   19 ar   
    31   18   41 1    
    32   19   20 ar   
    33   19   42 1    
    34   20   21 ar   
    35   20   43 1    
    36   21   22 ar   
    37   21   44 1    
    38   22   45 1    
    39   23   24 1    
    40   23   49 1    
    41   24   32 ar   
    42   24   25 ar   
    43   25   29 ar   
    44   25   26 ar   
    45   26   27 ar   
    46   26   30 ar   
    47   27   28 ar   
    48   28   29 ar   
    49   28   47 1    
    50   29   46 1    
    51   30   31 ar   
    52   30   50 1    
    53   31   48 1    
    54   31   32 ar   
@<TRIPOS>SUBSTRUCTURE
     1 IDE         1 GROUP             0       ****    0 ROOT    
@<TRIPOS>MOLECULE
5-fluoro-3-phenyl-2-[(1~{S})-1-(1~{H}-purin-6-ylamino)propyl]quinazolin-4-one
50   54    1
SMALL
USER_CHARGES


@<TRIPOS>ATOM
      1 C1         -5.2169   -5.2027    0.6501 C.3       1 IDE        -0.1002 
      2 C2         -3.9428   -5.9748    0.3377 C.3       1 IDE        -0.1058 
      3 C3         -3.5419   -5.8663   -1.1298 C.3       1 IDE         0.2139 
      4 H1         -4.3470   -6.3383   -1.7121 H         1 IDE         0.0676 
      5 C4         -3.2683   -4.4253   -1.5094 C.ar      1 IDE         0.4938 
      6 N1         -2.3187   -3.8375   -0.8483 N.pl3     1 IDE        -0.6356 
      7 C5         -2.0749   -2.4801   -1.0793 C.ar      1 IDE         0.2108 
      8 C6         -2.8343   -1.7339   -1.9804 C.ar      1 IDE        -0.2275 
      9 C7         -2.5804   -0.3703   -2.1710 C.ar      1 IDE         0.2034 
     10 C8         -1.5595    0.2509   -1.4530 C.ar      1 IDE        -0.1924 
     11 C9         -0.7949   -0.4854   -0.5514 C.ar      1 IDE        -0.0680 
     12 C10        -1.0526   -1.8443   -0.3653 C.ar      1 IDE        -0.1316 
     13 F1         -3.3014    0.3615   -3.0320 F         1 IDE        -0.1105 
     14 C11        -3.8945   -2.4175   -2.7506 C.ar      1 IDE         0.7173 
     15 O1         -4.5139   -1.7687   -3.5907 O.2       1 IDE        -0.5771 
     16 N2         -4.0511   -3.7931   -2.4786 N.pl3     1 IDE        -0.3237 
     17 C12        -5.0126   -4.5100   -3.2704 C.ar      1 IDE         0.0285 
     18 C13        -6.3602   -4.1531   -3.2219 C.ar      1 IDE        -0.1232 
     19 C14        -7.2937   -4.8476   -3.9912 C.ar      1 IDE        -0.1230 
     20 C15        -6.8797   -5.8990   -4.8090 C.ar      1 IDE        -0.1199 
     21 C16        -5.5321   -6.2560   -4.8574 C.ar      1 IDE        -0.1230 
     22 C17        -4.5986   -5.5615   -4.0881 C.ar      1 IDE        -0.1232 
     23 N3         -2.3139   -6.5538   -1.4218 N.pl3     1 IDE        -0.7651 
     24 C18        -2.2703   -7.8330   -1.7952 C.ar      1 IDE         0.4550 
     25 C19        -1.1113   -8.4941   -2.0743 C.ar      1 IDE        -0.2082 
     26 C20        -1.1078   -9.9051   -2.4826 C.ar      1 IDE         0.5756 
     27 N4          0.1130  -10.2980   -2.6883 N.2       1 IDE        -0.6495 
     28 C21         0.8509   -9.1521   -2.4137 C.ar      1 IDE         0.5273 
     29 N5          0.1923   -8.0842   -2.0546 N.pl3     1 IDE        -0.5848 
     30 N6         -2.2642  -10.6271   -2.6042 N.ar      1 IDE        -0.5899 
     31 C22        -3.3450   -9.9593   -2.3304 C.ar      1 IDE         0.5751 
     32 N7         -3.4154   -8.6422   -1.9425 N.ar      1 IDE        -0.7100 
     33 H2         -5.4606   -5.3135    1.7170 H         1 IDE         0.0467 
     34 H3         -6.0438   -5.5983    0.0420 H         1 IDE         0.0467 
     35 H4         -5.0670   -4.1382    0.4168 H         1 IDE         0.0467 
     36 H5         -3.1159   -5.5791    0.9457 H         1 IDE         0.0608 
     37 H6         -4.0926   -7.0393    0.5709 H         1 IDE         0.0608 
     38 H7         -1.3773    1.2254   -1.5841 H         1 IDE         0.1577 
     39 H8         -0.0605   -0.0407   -0.0386 H         1 IDE         0.1485 
     40 H9         -0.4967   -2.3650    0.2827 H         1 IDE         0.1673 
     41 H10        -6.6939   -3.3346   -2.5891 H         1 IDE         0.1460 
     42 H11        -8.3430   -4.5699   -3.9542 H         1 IDE         0.1418 
     43 H12        -7.6066   -6.4401   -5.4075 H         1 IDE         0.1413 
     44 H13        -5.2102   -7.0745   -5.4945 H         1 IDE         0.1418 
     45 H14        -3.5509   -5.8481   -4.1350 H         1 IDE         0.1460 
     46 H15         0.4394   -7.0497   -1.7739 H         1 IDE         0.4993 
     47 H16         1.8475   -9.1680   -2.4940 H         1 IDE         0.0604 
     48 H17        -4.1820  -10.4986   -2.4235 H         1 IDE         0.0602 
     49 H18        -1.3538   -6.0231   -1.3410 H         1 IDE         0.4517 
     50 H50        -1.7215   -4.4065   -0.1206 H         1 IDE         0.0000 
@<TRIPOS>BOND
     1    1    2 1    
     2    1   33 1    
     3    1   34 1    
     4    1   35 1    
     5    2    3 1    
     6    2   36 1    
     7    2   37 1    
     8    3    4 1    
     9    3    5 1    
    10    3   23 1    
    11    5   16 ar   
    12    5    6 ar   
    13    6    7 ar   
    14    6   50 1    
    15    7   12 ar   
    16    7    8 ar   
    17    8    9 ar   
    18    8   14 ar   
    19    9   10 ar   
    20    9   13 1    
    21   10   11 ar   
    22   10   38 1    
    23   11   12 ar   
    24   11   39 1    
    25   12   40 1    
    26   14   15 2    
    27   14   16 ar   
    28   16   17 1    
    29   17   22 ar   
    30   17   18 ar   
    31   18   19 ar   
    32   18   41 1    
    33   19   20 ar   
    34   19   42 1    
    35   20   21 ar   
    36   20   43 1    
    37   21   22 ar   
    38   21   44 1    
    39   22   45 1    
    40   23   24 1    
    41   23   49 1    
    42   24   32 ar   
    43   24   25 ar   
    44   25   29 ar   
    45   25   26 ar   
    46   26   27 ar   
    47   26   30 ar   
    48   27   28 ar   
    49   28   29 ar   
    50   28   47 1    
    51   29   46 1    
    52   30   31 ar   
    53   31   48 1    
    54   31   32 ar   
@<TRIPOS>SUBSTRUCTURE
     1 IDE         1 GROUP             0       ****    0 ROOT    
@<TRIPOS>MOLECULE
5-fluoro-3-phenyl-2-[(1~{S})-1-(1~{H}-purin-6-ylamino)propyl]quinazolin-4-one
48   52    1
SMALL
USER_CHARGES


@<TRIPOS>ATOM
      1 C1         -5.2180   -5.1996    0.6441 C.3       1 IDE        -0.1002 
      2 C2         -3.9438   -5.9721    0.3330 C.3       1 IDE        -0.1058 
      3 C3         -3.5422   -5.8650   -1.1344 C.3       1 IDE         0.2139 
      4 H1         -4.3471   -6.3375   -1.7166 H         1 IDE         0.0676 
      5 C4         -3.2684   -4.4243   -1.5152 C.ar      1 IDE         0.4938 
      6 N1         -2.3191   -3.8360   -0.8542 N.2       1 IDE        -0.6356 
      7 C5         -2.0751   -2.4788   -1.0864 C.ar      1 IDE         0.2108 
      8 C6         -2.8340   -1.7334   -1.9885 C.ar      1 IDE        -0.2275 
      9 C7         -2.5800   -0.3700   -2.1802 C.ar      1 IDE         0.2034 
     10 C8         -1.5594    0.2518   -1.4623 C.ar      1 IDE        -0.1924 
     11 C9         -0.7952   -0.4837   -0.5597 C.ar      1 IDE        -0.0680 
     12 C10        -1.0530   -1.8424   -0.3725 C.ar      1 IDE        -0.1316 
     13 F1         -3.3006    0.3611   -3.0422 F         1 IDE        -0.1105 
     14 C11        -3.8939   -2.4176   -2.7585 C.ar      1 IDE         0.7173 
     15 O1         -4.5129   -1.7696   -3.5995 O.2       1 IDE        -0.5771 
     16 N2         -4.0507   -3.7930   -2.4853 N.pl3     1 IDE        -0.3237 
     17 C12        -5.0119   -4.5105   -3.2769 C.ar      1 IDE         0.0285 
     18 C13        -6.3595   -4.1535   -3.2293 C.ar      1 IDE        -0.1232 
     19 C14        -7.2927   -4.8487   -3.9984 C.ar      1 IDE        -0.1230 
     20 C15        -6.8784   -5.9009   -4.8150 C.ar      1 IDE        -0.1199 
     21 C16        -5.5308   -6.2580   -4.8625 C.ar      1 IDE        -0.1230 
     22 C17        -4.5976   -5.5628   -4.0934 C.ar      1 IDE        -0.1232 
     23 N3         -2.3142   -6.5528   -1.4252 N.2       1 IDE        -0.7651 
     24 C18        -2.2705   -7.8323   -1.7974 C.ar      1 IDE         0.4550 
     25 C19        -1.1114   -8.4938   -2.0752 C.ar      1 IDE        -0.2082 
     26 C20        -1.1078   -9.9051   -2.4824 C.ar      1 IDE         0.5756 
     27 N4          0.1130  -10.2981   -2.6880 N.2       1 IDE        -0.6495 
     28 C21         0.8509   -9.1523   -2.4128 C.ar      1 IDE         0.5273 
     29 N5          0.1922   -8.0841   -2.0550 N.ar      1 IDE        -0.5848 
     30 N6         -2.2641  -10.6274   -2.6033 N.2       1 IDE        -0.5899 
     31 C22        -3.3449   -9.9597   -2.3289 C.ar      1 IDE         0.5751 
     32 N7         -3.4155   -8.6421   -1.9429 N.pl3     1 IDE        -0.7100 
     33 H2         -5.4621   -5.3095    1.7110 H         1 IDE         0.0467 
     34 H3         -6.0447   -5.5958    0.0361 H         1 IDE         0.0467 
     35 H4         -5.0679   -4.1353    0.4100 H         1 IDE         0.0467 
     36 H5         -3.1171   -5.5759    0.9410 H         1 IDE         0.0608 
     37 H6         -4.0938   -7.0364    0.5671 H         1 IDE         0.0608 
     38 H7         -1.3770    1.2261   -1.5942 H         1 IDE         0.1577 
     39 H8         -0.0610   -0.0385   -0.0470 H         1 IDE         0.1485 
     40 H9         -0.4975   -2.3626    0.2762 H         1 IDE         0.1673 
     41 H10        -6.6935   -3.3344   -2.5974 H         1 IDE         0.1460 
     42 H11        -8.3420   -4.5709   -3.9621 H         1 IDE         0.1418 
     43 H12        -7.6051   -6.4425   -5.4134 H         1 IDE         0.1413 
     44 H13        -5.2087   -7.0771   -5.4987 H         1 IDE         0.1418 
     45 H14        -3.5499   -5.8495   -4.1396 H         1 IDE         0.1460 
     46 H16         1.8483   -9.1256   -2.4802 H         1 IDE         0.0604 
     47 H17        -4.2376  -10.4062   -2.3904 H         1 IDE         0.0602 
     48 H18        -4.3925   -8.1816   -1.7346 H         1 IDE         0.4517 
@<TRIPOS>BOND
     1    1    2 1    
     2    1   33 1    
     3    1   34 1    
     4    1   35 1    
     5    2    3 1    
     6    2   36 1    
     7    2   37 1    
     8    3    4 1    
     9    3    5 1    
    10    3   23 1    
    11    5   16 ar   
    12    5    6 ar   
    13    6    7 ar   
    14    7   12 ar   
    15    7    8 ar   
    16    8    9 ar   
    17    8   14 ar   
    18    9   10 ar   
    19    9   13 1    
    20   10   11 ar   
    21   10   38 1    
    22   11   12 ar   
    23   11   39 1    
    24   12   40 1    
    25   14   15 2    
    26   14   16 ar   
    27   16   17 1    
    28   17   22 ar   
    29   17   18 ar   
    30   18   19 ar   
    31   18   41 1    
    32   19   20 ar   
    33   19   42 1    
    34   20   21 ar   
    35   20   43 1    
    36   21   22 ar   
    37   21   44 1    
    38   22   45 1    
    39   23   24 2    
    40   24   32 ar   
    41   24   25 ar   
    42   25   29 ar   
    43   25   26 ar   
    44   26   27 ar   
    45   26   30 ar   
    46   27   28 ar   
    47   28   29 ar   
    48   28   46 1    
    49   30   31 ar   
    50   31   47 1    
    51   31   32 ar   
    52   32   48 1    
@<TRIPOS>SUBSTRUCTURE
     1 IDE         1 GROUP             0       ****    0 ROOT    
@<TRIPOS>MOLECULE
5-fluoro-3-phenyl-2-[(1~{S})-1-(1~{H}-purin-6-ylamino)propyl]quinazolin-4-one
48   52    1
SMALL
USER_CHARGES


@<TRIPOS>ATOM
      1 C1          0.4604   -4.1220   -2.3937 C.3       1 IDE        -0.1002 
      2 C2         -0.7568   -5.0193   -2.5684 C.3       1 IDE        -0.1058 
      3 C3         -1.1374   -5.7406   -1.2797 C.3       1 IDE         0.2139 
      4 H1         -0.2939   -6.3997   -1.0266 H         1 IDE         0.0676 
      5 C4         -1.4943   -4.7488   -0.1913 C.ar      1 IDE         0.4938 
      6 N1         -2.4907   -3.9590   -0.4514 N.2       1 IDE        -0.6356 
      7 C5         -2.8153   -2.9561    0.4674 C.ar      1 IDE         0.2108 
      8 C6         -2.0884   -2.7641    1.6422 C.ar      1 IDE        -0.2275 
      9 C7         -2.4241   -1.7348    2.5299 C.ar      1 IDE         0.2034 
     10 C8         -3.4948   -0.8908    2.2384 C.ar      1 IDE        -0.1924 
     11 C9         -4.2276   -1.0745    1.0684 C.ar      1 IDE        -0.0680 
     12 C10        -3.8883   -2.1020    0.1870 C.ar      1 IDE        -0.1316 
     13 F1         -1.7353   -1.5358    3.6624 F         1 IDE        -0.1105 
     14 C11        -0.9736   -3.6861    1.9449 C.ar      1 IDE         0.7173 
     15 O1         -0.3814   -3.5521    3.0134 O.2       1 IDE        -0.5771 
     16 N2         -0.7357   -4.6879    0.9802 N.pl3     1 IDE        -0.3237 
     17 C12         0.2831   -5.6557    1.2816 C.ar      1 IDE         0.0285 
     18 C13         1.6045   -5.2448    1.4573 C.ar      1 IDE        -0.1232 
     19 C14         2.5935   -6.1836    1.7511 C.ar      1 IDE        -0.1230 
     20 C15         2.2612   -7.5331    1.8691 C.ar      1 IDE        -0.1199 
     21 C16         0.9398   -7.9440    1.6932 C.ar      1 IDE        -0.1230 
     22 C17        -0.0492   -7.0053    1.3994 C.ar      1 IDE        -0.1232 
     23 N3         -2.3142   -6.5528   -1.4252 N.2       1 IDE        -0.7651 
     24 C18        -2.2705   -7.8323   -1.7974 C.ar      1 IDE         0.4550 
     25 C19        -1.1114   -8.4938   -2.0752 C.ar      1 IDE        -0.2082 
     26 C20        -1.1078   -9.9051   -2.4824 C.ar      1 IDE         0.5756 
     27 N4          0.1130  -10.2981   -2.6880 N.2       1 IDE        -0.6495 
     28 C21         0.8509   -9.1523   -2.4128 C.ar      1 IDE         0.5273 
     29 N5          0.1922   -8.0841   -2.0550 N.ar      1 IDE        -0.5848 
     30 N6         -2.2641  -10.6274   -2.6033 N.2       1 IDE        -0.5899 
     31 C22        -3.3449   -9.9597   -2.3289 C.ar      1 IDE         0.5751 
     32 N7         -3.4155   -8.6421   -1.9429 N.pl3     1 IDE        -0.7100 
     33 H2          0.6914   -3.6274   -3.3488 H         1 IDE         0.0467 
     34 H3          1.3213   -4.7293   -2.0777 H         1 IDE         0.0467 
     35 H4          0.2480   -3.3608   -1.6286 H         1 IDE         0.0467 
     36 H5         -1.6177   -4.4119   -2.8845 H         1 IDE         0.0608 
     37 H6         -0.5445   -5.7805   -3.3335 H         1 IDE         0.0608 
     38 H7         -3.7356   -0.1526    2.8685 H         1 IDE         0.1577 
     39 H8         -4.9976   -0.4712    0.8607 H         1 IDE         0.1485 
     40 H9         -4.4218   -2.2273   -0.6494 H         1 IDE         0.1673 
     41 H10         1.8747   -4.1955    1.3689 H         1 IDE         0.1460 
     42 H11         3.6224   -5.8642    1.8885 H         1 IDE         0.1418 
     43 H12         3.0314   -8.2640    2.0973 H         1 IDE         0.1413 
     44 H13         0.6816   -8.9948    1.7854 H         1 IDE         0.1418 
     45 H14        -1.0757   -7.3373    1.2656 H         1 IDE         0.1460 
     46 H16         1.8483   -9.1256   -2.4802 H         1 IDE         0.0604 
     47 H17        -4.2376  -10.4062   -2.3904 H         1 IDE         0.0602 
     48 H18        -4.3925   -8.1816   -1.7346 H         1 IDE         0.4517 
@<TRIPOS>BOND
     1    1    2 1    
     2    1   33 1    
     3    1   34 1    
     4    1   35 1    
     5    2    3 1    
     6    2   36 1    
     7    2   37 1    
     8    3    4 1    
     9    3    5 1    
    10    3   23 1    
    11    5   16 ar   
    12    5    6 ar   
    13    6    7 ar   
    14    7   12 ar   
    15    7    8 ar   
    16    8    9 ar   
    17    8   14 ar   
    18    9   10 ar   
    19    9   13 1    
    20   10   11 ar   
    21   10   38 1    
    22   11   12 ar   
    23   11   39 1    
    24   12   40 1    
    25   14   15 2    
    26   14   16 ar   
    27   16   17 1    
    28   17   22 ar   
    29   17   18 ar   
    30   18   19 ar   
    31   18   41 1    
    32   19   20 ar   
    33   19   42 1    
    34   20   21 ar   
    35   20   43 1    
    36   21   22 ar   
    37   21   44 1    
    38   22   45 1    
    39   23   24 2    
    40   24   32 ar   
    41   24   25 ar   
    42   25   29 ar   
    43   25   26 ar   
    44   26   27 ar   
    45   26   30 ar   
    46   27   28 ar   
    47   28   29 ar   
    48   28   46 1    
    49   30   31 ar   
    50   31   47 1    
    51   31   32 ar   
    52   32   48 1    
@<TRIPOS>SUBSTRUCTURE
     1 IDE         1 GROUP             0       ****    0 ROOT    
@<TRIPOS>MOLECULE
5-fluoro-3-phenyl-2-[(1~{S})-1-(1~{H}-purin-6-ylamino)propyl]quinazolin-4-one
50   54    1
SMALL
USER_CHARGES


@<TRIPOS>ATOM
      1 C1         -5.2169   -5.2027    0.6501 C.3       1 IDE        -0.1002 
      2 C2         -3.9428   -5.9748    0.3377 C.3       1 IDE        -0.1058 
      3 C3         -3.5419   -5.8663   -1.1298 C.3       1 IDE         0.2139 
      4 H1         -4.3470   -6.3383   -1.7121 H         1 IDE         0.0676 
      5 C4         -3.2683   -4.4253   -1.5094 C.ar      1 IDE         0.4938 
      6 N1         -2.3187   -3.8375   -0.8483 N.2       1 IDE        -0.6356 
      7 C5         -2.0749   -2.4801   -1.0793 C.ar      1 IDE         0.2108 
      8 C6         -2.8343   -1.7339   -1.9804 C.ar      1 IDE        -0.2275 
      9 C7         -2.5804   -0.3703   -2.1710 C.ar      1 IDE         0.2034 
     10 C8         -1.5595    0.2509   -1.4530 C.ar      1 IDE        -0.1924 
     11 C9         -0.7949   -0.4854   -0.5514 C.ar      1 IDE        -0.0680 
     12 C10        -1.0526   -1.8443   -0.3653 C.ar      1 IDE        -0.1316 
     13 F1         -3.3014    0.3615   -3.0320 F         1 IDE        -0.1105 
     14 C11        -3.8945   -2.4175   -2.7506 C.ar      1 IDE         0.7173 
     15 O1         -4.5139   -1.7687   -3.5907 O.2       1 IDE        -0.5771 
     16 N2         -4.0511   -3.7931   -2.4786 N.pl3     1 IDE        -0.3237 
     17 C12        -5.0126   -4.5100   -3.2704 C.ar      1 IDE         0.0285 
     18 C13        -6.3602   -4.1531   -3.2219 C.ar      1 IDE        -0.1232 
     19 C14        -7.2937   -4.8476   -3.9912 C.ar      1 IDE        -0.1230 
     20 C15        -6.8797   -5.8990   -4.8090 C.ar      1 IDE        -0.1199 
     21 C16        -5.5321   -6.2560   -4.8574 C.ar      1 IDE        -0.1230 
     22 C17        -4.5986   -5.5615   -4.0881 C.ar      1 IDE        -0.1232 
     23 N3         -2.3139   -6.5538   -1.4218 N.pl3     1 IDE        -0.7651 
     24 C18        -2.2703   -7.8330   -1.7952 C.ar      1 IDE         0.4550 
     25 C19        -1.1113   -8.4941   -2.0743 C.ar      1 IDE        -0.2082 
     26 C20        -1.1078   -9.9051   -2.4826 C.ar      1 IDE         0.5756 
     27 N4          0.1130  -10.2980   -2.6883 N.2       1 IDE        -0.6495 
     28 C21         0.8509   -9.1521   -2.4137 C.ar      1 IDE         0.5273 
     29 N5          0.1923   -8.0842   -2.0546 N.pl3     1 IDE        -0.5848 
     30 N6         -2.2642  -10.6271   -2.6042 N.ar      1 IDE        -0.5899 
     31 C22        -3.3450   -9.9593   -2.3304 C.ar      1 IDE         0.5751 
     32 N7         -3.4154   -8.6422   -1.9425 N.pl3     1 IDE        -0.7100 
     33 H2         -5.4606   -5.3135    1.7170 H         1 IDE         0.0467 
     34 H3         -6.0438   -5.5983    0.0420 H         1 IDE         0.0467 
     35 H4         -5.0670   -4.1382    0.4168 H         1 IDE         0.0467 
     36 H5         -3.1159   -5.5791    0.9457 H         1 IDE         0.0608 
     37 H6         -4.0926   -7.0393    0.5709 H         1 IDE         0.0608 
     38 H7         -1.3773    1.2254   -1.5841 H         1 IDE         0.1577 
     39 H8         -0.0605   -0.0407   -0.0386 H         1 IDE         0.1485 
     40 H9         -0.4967   -2.3650    0.2827 H         1 IDE         0.1673 
     41 H10        -6.6939   -3.3346   -2.5891 H         1 IDE         0.1460 
     42 H11        -8.3430   -4.5699   -3.9542 H         1 IDE         0.1418 
     43 H12        -7.6066   -6.4401   -5.4075 H         1 IDE         0.1413 
     44 H13        -5.2102   -7.0745   -5.4945 H         1 IDE         0.1418 
     45 H14        -3.5509   -5.8481   -4.1350 H         1 IDE         0.1460 
     46 H15         0.4394   -7.0497   -1.7739 H         1 IDE         0.4993 
     47 H16         1.8475   -9.1680   -2.4940 H         1 IDE         0.0604 
     48 H17        -4.1820  -10.4986   -2.4235 H         1 IDE         0.0602 
     49 H18        -1.3538   -6.0231   -1.3410 H         1 IDE         0.4517 
     50 H50        -4.3924   -8.1818   -1.7341 H         1 IDE         0.0000 
@<TRIPOS>BOND
     1    1    2 1    
     2    1   33 1    
     3    1   34 1    
     4    1   35 1    
     5    2    3 1    
     6    2   36 1    
     7    2   37 1    
     8    3    4 1    
     9    3    5 1    
    10    3   23 1    
    11    5   16 ar   
    12    5    6 ar   
    13    6    7 ar   
    14    7   12 ar   
    15    7    8 ar   
    16    8    9 ar   
    17    8   14 ar   
    18    9   10 ar   
    19    9   13 1    
    20   10   11 ar   
    21   10   38 1    
    22   11   12 ar   
    23   11   39 1    
    24   12   40 1    
    25   14   15 2    
    26   14   16 ar   
    27   16   17 1    
    28   17   22 ar   
    29   17   18 ar   
    30   18   19 ar   
    31   18   41 1    
    32   19   20 ar   
    33   19   42 1    
    34   20   21 ar   
    35   20   43 1    
    36   21   22 ar   
    37   21   44 1    
    38   22   45 1    
    39   23   24 1    
    40   23   49 1    
    41   24   32 ar   
    42   24   25 ar   
    43   25   29 ar   
    44   25   26 ar   
    45   26   27 ar   
    46   26   30 ar   
    47   27   28 ar   
    48   28   29 ar   
    49   28   47 1    
    50   29   46 1    
    51   30   31 ar   
    52   31   48 1    
    53   31   32 ar   
    54   32   50 1    
@<TRIPOS>SUBSTRUCTURE
     1 IDE         1 GROUP             0       ****    0 ROOT    
@<TRIPOS>MOLECULE
5-fluoro-3-phenyl-2-[(1~{S})-1-(1~{H}-purin-6-ylamino)propyl]quinazolin-4-one
49   53    1
SMALL
USER_CHARGES


@<TRIPOS>ATOM
      1 C1          0.4604   -4.1220   -2.3937 C.3       1 IDE        -0.1002 
      2 C2         -0.7568   -5.0193   -2.5684 C.3       1 IDE        -0.1058 
      3 C3         -1.1374   -5.7406   -1.2797 C.3       1 IDE         0.2139 
      4 H1         -0.2939   -6.3997   -1.0266 H         1 IDE         0.0676 
      5 C4         -1.4943   -4.7488   -0.1913 C.ar      1 IDE         0.4938 
      6 N1         -2.4907   -3.9590   -0.4514 N.2       1 IDE        -0.6356 
      7 C5         -2.8153   -2.9561    0.4674 C.ar      1 IDE         0.2108 
      8 C6         -2.0884   -2.7641    1.6422 C.ar      1 IDE        -0.2275 
      9 C7         -2.4241   -1.7348    2.5299 C.ar      1 IDE         0.2034 
     10 C8         -3.4948   -0.8908    2.2384 C.ar      1 IDE        -0.1924 
     11 C9         -4.2276   -1.0745    1.0684 C.ar      1 IDE        -0.0680 
     12 C10        -3.8883   -2.1020    0.1870 C.ar      1 IDE        -0.1316 
     13 F1         -1.7353   -1.5358    3.6624 F         1 IDE        -0.1105 
     14 C11        -0.9736   -3.6861    1.9449 C.ar      1 IDE         0.7173 
     15 O1         -0.3814   -3.5521    3.0134 O.2       1 IDE        -0.5771 
     16 N2         -0.7357   -4.6879    0.9802 N.pl3     1 IDE        -0.3237 
     17 C12         0.2831   -5.6557    1.2816 C.ar      1 IDE         0.0285 
     18 C13         1.6045   -5.2448    1.4573 C.ar      1 IDE        -0.1232 
     19 C14         2.5935   -6.1836    1.7511 C.ar      1 IDE        -0.1230 
     20 C15         2.2612   -7.5331    1.8691 C.ar      1 IDE        -0.1199 
     21 C16         0.9398   -7.9440    1.6932 C.ar      1 IDE        -0.1230 
     22 C17        -0.0492   -7.0053    1.3994 C.ar      1 IDE        -0.1232 
     23 N3         -2.3142   -6.5528   -1.4252 N.2       1 IDE        -0.7651 
     24 C18        -2.2705   -7.8323   -1.7974 C.ar      1 IDE         0.4550 
     25 C19        -1.1114   -8.4938   -2.0752 C.ar      1 IDE        -0.2082 
     26 C20        -1.1078   -9.9051   -2.4824 C.ar      1 IDE         0.5756 
     27 N4          0.1130  -10.2981   -2.6880 N.pl3     1 IDE        -0.6495 
     28 C21         0.8509   -9.1523   -2.4128 C.ar      1 IDE         0.5273 
     29 N5          0.1922   -8.0841   -2.0550 N.2       1 IDE        -0.5848 
     30 N6         -2.2641  -10.6274   -2.6033 N.2       1 IDE        -0.5899 
     31 C22        -3.3449   -9.9597   -2.3289 C.ar      1 IDE         0.5751 
     32 N7         -3.4155   -8.6421   -1.9429 N.pl3     1 IDE        -0.7100 
     33 H2          0.6914   -3.6274   -3.3488 H         1 IDE         0.0467 
     34 H3          1.3213   -4.7293   -2.0777 H         1 IDE         0.0467 
     35 H4          0.2480   -3.3608   -1.6286 H         1 IDE         0.0467 
     36 H5         -1.6177   -4.4119   -2.8845 H         1 IDE         0.0608 
     37 H6         -0.5445   -5.7805   -3.3335 H         1 IDE         0.0608 
     38 H7         -3.7356   -0.1526    2.8685 H         1 IDE         0.1577 
     39 H8         -4.9976   -0.4712    0.8607 H         1 IDE         0.1485 
     40 H9         -4.4218   -2.2273   -0.6494 H         1 IDE         0.1673 
     41 H10         1.8747   -4.1955    1.3689 H         1 IDE         0.1460 
     42 H11         3.6224   -5.8642    1.8885 H         1 IDE         0.1418 
     43 H12         3.0314   -8.2640    2.0973 H         1 IDE         0.1413 
     44 H13         0.6816   -8.9948    1.7854 H         1 IDE         0.1418 
     45 H14        -1.0757   -7.3373    1.2656 H         1 IDE         0.1460 
     46 H15         0.6256  -11.2222   -2.9934 H         1 IDE         0.4993 
     47 H16         1.8483   -9.1256   -2.4802 H         1 IDE         0.0604 
     48 H17        -4.2376  -10.4062   -2.3904 H         1 IDE         0.0602 
     49 H18        -4.3925   -8.1816   -1.7346 H         1 IDE         0.4517 
@<TRIPOS>BOND
     1    1    2 1    
     2    1   33 1    
     3    1   34 1    
     4    1   35 1    
     5    2    3 1    
     6    2   36 1    
     7    2   37 1    
     8    3    4 1    
     9    3    5 1    
    10    3   23 1    
    11    5   16 ar   
    12    5    6 ar   
    13    6    7 ar   
    14    7   12 ar   
    15    7    8 ar   
    16    8    9 ar   
    17    8   14 ar   
    18    9   10 ar   
    19    9   13 1    
    20   10   11 ar   
    21   10   38 1    
    22   11   12 ar   
    23   11   39 1    
    24   12   40 1    
    25   14   15 2    
    26   14   16 ar   
    27   16   17 1    
    28   17   22 ar   
    29   17   18 ar   
    30   18   19 ar   
    31   18   41 1    
    32   19   20 ar   
    33   19   42 1    
    34   20   21 ar   
    35   20   43 1    
    36   21   22 ar   
    37   21   44 1    
    38   22   45 1    
    39   23   24 2    
    40   24   32 ar   
    41   24   25 ar   
    42   25   29 ar   
    43   25   26 ar   
    44   26   27 ar   
    45   26   30 ar   
    46   27   28 ar   
    47   27   46 1    
    48   28   29 ar   
    49   28   47 1    
    50   30   31 ar   
    51   31   48 1    
    52   31   32 ar   
    53   32   49 1    
@<TRIPOS>SUBSTRUCTURE
     1 IDE         1 GROUP             0       ****    0 ROOT    
@<TRIPOS>MOLECULE
5-fluoro-3-phenyl-2-[(1~{S})-1-(1~{H}-purin-6-ylamino)propyl]quinazolin-4-one
49   53    1
SMALL
USER_CHARGES


@<TRIPOS>ATOM
      1 C1         -5.2180   -5.1996    0.6441 C.3       1 IDE        -0.1002 
      2 C2         -3.9438   -5.9721    0.3330 C.3       1 IDE        -0.1058 
      3 C3         -3.5422   -5.8650   -1.1344 C.3       1 IDE         0.2139 
      4 H1         -4.3471   -6.3375   -1.7166 H         1 IDE         0.0676 
      5 C4         -3.2684   -4.4243   -1.5152 C.ar      1 IDE         0.4938 
      6 N1         -2.3191   -3.8360   -0.8542 N.2       1 IDE        -0.6356 
      7 C5         -2.0751   -2.4788   -1.0864 C.ar      1 IDE         0.2108 
      8 C6         -2.8340   -1.7334   -1.9885 C.ar      1 IDE        -0.2275 
      9 C7         -2.5800   -0.3700   -2.1802 C.ar      1 IDE         0.2034 
     10 C8         -1.5594    0.2518   -1.4623 C.ar      1 IDE        -0.1924 
     11 C9         -0.7952   -0.4837   -0.5597 C.ar      1 IDE        -0.0680 
     12 C10        -1.0530   -1.8424   -0.3725 C.ar      1 IDE        -0.1316 
     13 F1         -3.3006    0.3611   -3.0422 F         1 IDE        -0.1105 
     14 C11        -3.8939   -2.4176   -2.7585 C.ar      1 IDE         0.7173 
     15 O1         -4.5129   -1.7696   -3.5995 O.2       1 IDE        -0.5771 
     16 N2         -4.0507   -3.7930   -2.4853 N.pl3     1 IDE        -0.3237 
     17 C12        -5.0119   -4.5105   -3.2769 C.ar      1 IDE         0.0285 
     18 C13        -6.3595   -4.1535   -3.2293 C.ar      1 IDE        -0.1232 
     19 C14        -7.2927   -4.8487   -3.9984 C.ar      1 IDE        -0.1230 
     20 C15        -6.8784   -5.9009   -4.8150 C.ar      1 IDE        -0.1199 
     21 C16        -5.5308   -6.2580   -4.8625 C.ar      1 IDE        -0.1230 
     22 C17        -4.5976   -5.5628   -4.0934 C.ar      1 IDE        -0.1232 
     23 N3         -2.3142   -6.5528   -1.4252 N.2       1 IDE        -0.7651 
     24 C18        -2.2705   -7.8323   -1.7974 C.ar      1 IDE         0.4550 
     25 C19        -1.1114   -8.4938   -2.0752 C.ar      1 IDE        -0.2082 
     26 C20        -1.1078   -9.9051   -2.4824 C.ar      1 IDE         0.5756 
     27 N4          0.1130  -10.2981   -2.6880 N.pl3     1 IDE        -0.6495 
     28 C21         0.8509   -9.1523   -2.4128 C.ar      1 IDE         0.5273 
     29 N5          0.1922   -8.0841   -2.0550 N.2       1 IDE        -0.5848 
     30 N6         -2.2641  -10.6274   -2.6033 N.2       1 IDE        -0.5899 
     31 C22        -3.3449   -9.9597   -2.3289 C.ar      1 IDE         0.5751 
     32 N7         -3.4155   -8.6421   -1.9429 N.pl3     1 IDE        -0.7100 
     33 H2         -5.4621   -5.3095    1.7110 H         1 IDE         0.0467 
     34 H3         -6.0447   -5.5958    0.0361 H         1 IDE         0.0467 
     35 H4         -5.0679   -4.1353    0.4100 H         1 IDE         0.0467 
     36 H5         -3.1171   -5.5759    0.9410 H         1 IDE         0.0608 
     37 H6         -4.0938   -7.0364    0.5671 H         1 IDE         0.0608 
     38 H7         -1.3770    1.2261   -1.5942 H         1 IDE         0.1577 
     39 H8         -0.0610   -0.0385   -0.0470 H         1 IDE         0.1485 
     40 H9         -0.4975   -2.3626    0.2762 H         1 IDE         0.1673 
     41 H10        -6.6935   -3.3344   -2.5974 H         1 IDE         0.1460 
     42 H11        -8.3420   -4.5709   -3.9621 H         1 IDE         0.1418 
     43 H12        -7.6051   -6.4425   -5.4134 H         1 IDE         0.1413 
     44 H13        -5.2087   -7.0771   -5.4987 H         1 IDE         0.1418 
     45 H14        -3.5499   -5.8495   -4.1396 H         1 IDE         0.1460 
     46 H15         0.6256  -11.2222   -2.9934 H         1 IDE         0.4993 
     47 H16         1.8483   -9.1256   -2.4802 H         1 IDE         0.0604 
     48 H17        -4.2376  -10.4062   -2.3904 H         1 IDE         0.0602 
     49 H18        -4.3925   -8.1816   -1.7346 H         1 IDE         0.4517 
@<TRIPOS>BOND
     1    1    2 1    
     2    1   33 1    
     3    1   34 1    
     4    1   35 1    
     5    2    3 1    
     6    2   36 1    
     7    2   37 1    
     8    3    4 1    
     9    3    5 1    
    10    3   23 1    
    11    5   16 ar   
    12    5    6 ar   
    13    6    7 ar   
    14    7   12 ar   
    15    7    8 ar   
    16    8    9 ar   
    17    8   14 ar   
    18    9   10 ar   
    19    9   13 1    
    20   10   11 ar   
    21   10   38 1    
    22   11   12 ar   
    23   11   39 1    
    24   12   40 1    
    25   14   15 2    
    26   14   16 ar   
    27   16   17 1    
    28   17   22 ar   
    29   17   18 ar   
    30   18   19 ar   
    31   18   41 1    
    32   19   20 ar   
    33   19   42 1    
    34   20   21 ar   
    35   20   43 1    
    36   21   22 ar   
    37   21   44 1    
    38   22   45 1    
    39   23   24 2    
    40   24   32 ar   
    41   24   25 ar   
    42   25   29 ar   
    43   25   26 ar   
    44   26   27 ar   
    45   26   30 ar   
    46   27   28 ar   
    47   27   46 1    
    48   28   29 ar   
    49   28   47 1    
    50   30   31 ar   
    51   31   48 1    
    52   31   32 ar   
    53   32   49 1    
@<TRIPOS>SUBSTRUCTURE
     1 IDE         1 GROUP             0       ****    0 ROOT    
@<TRIPOS>MOLECULE
5-fluoro-3-phenyl-2-[(1~{S})-1-(1~{H}-purin-6-ylamino)propyl]quinazolin-4-one
48   52    1
SMALL
USER_CHARGES


@<TRIPOS>ATOM
      1 C1         -5.2169   -5.2027    0.6501 C.3       1 IDE        -0.1002 
      2 C2         -3.9428   -5.9748    0.3377 C.3       1 IDE        -0.1058 
      3 C3         -3.5419   -5.8663   -1.1298 C.3       1 IDE         0.2139 
      4 H1         -4.3470   -6.3383   -1.7121 H         1 IDE         0.0676 
      5 C4         -3.2683   -4.4253   -1.5094 C.ar      1 IDE         0.4938 
      6 N1         -2.3187   -3.8375   -0.8483 N.2       1 IDE        -0.6356 
      7 C5         -2.0749   -2.4801   -1.0793 C.ar      1 IDE         0.2108 
      8 C6         -2.8343   -1.7339   -1.9804 C.ar      1 IDE        -0.2275 
      9 C7         -2.5804   -0.3703   -2.1710 C.ar      1 IDE         0.2034 
     10 C8         -1.5595    0.2509   -1.4530 C.ar      1 IDE        -0.1924 
     11 C9         -0.7949   -0.4854   -0.5514 C.ar      1 IDE        -0.0680 
     12 C10        -1.0526   -1.8443   -0.3653 C.ar      1 IDE        -0.1316 
     13 F1         -3.3014    0.3615   -3.0320 F         1 IDE        -0.1105 
     14 C11        -3.8945   -2.4175   -2.7506 C.ar      1 IDE         0.7173 
     15 O1         -4.5139   -1.7687   -3.5907 O.2       1 IDE        -0.5771 
     16 N2         -4.0511   -3.7931   -2.4786 N.pl3     1 IDE        -0.3237 
     17 C12        -5.0126   -4.5100   -3.2704 C.ar      1 IDE         0.0285 
     18 C13        -6.3602   -4.1531   -3.2219 C.ar      1 IDE        -0.1232 
     19 C14        -7.2937   -4.8476   -3.9912 C.ar      1 IDE        -0.1230 
     20 C15        -6.8797   -5.8990   -4.8090 C.ar      1 IDE        -0.1199 
     21 C16        -5.5321   -6.2560   -4.8574 C.ar      1 IDE        -0.1230 
     22 C17        -4.5986   -5.5615   -4.0881 C.ar      1 IDE        -0.1232 
     23 N3         -2.3139   -6.5538   -1.4218 N.2       1 IDE        -0.7651 
     24 C18        -2.2703   -7.8330   -1.7952 C.ar      1 IDE         0.4550 
     25 C19        -1.1113   -8.4941   -2.0743 C.ar      1 IDE        -0.2082 
     26 C20        -1.1078   -9.9051   -2.4826 C.ar      1 IDE         0.5756 
     27 N4          0.1130  -10.2980   -2.6883 N.pl3     1 IDE        -0.6495 
     28 C21         0.8509   -9.1521   -2.4137 C.ar      1 IDE         0.5273 
     29 N5          0.1923   -8.0842   -2.0546 N.2       1 IDE        -0.5848 
     30 N6         -2.2642  -10.6271   -2.6042 N.ar      1 IDE        -0.5899 
     31 C22        -3.3450   -9.9593   -2.3304 C.ar      1 IDE         0.5751 
     32 N7         -3.4154   -8.6422   -1.9425 N.ar      1 IDE        -0.7100 
     33 H2         -5.4606   -5.3135    1.7170 H         1 IDE         0.0467 
     34 H3         -6.0438   -5.5983    0.0420 H         1 IDE         0.0467 
     35 H4         -5.0670   -4.1382    0.4168 H         1 IDE         0.0467 
     36 H5         -3.1159   -5.5791    0.9457 H         1 IDE         0.0608 
     37 H6         -4.0926   -7.0393    0.5709 H         1 IDE         0.0608 
     38 H7         -1.3773    1.2254   -1.5841 H         1 IDE         0.1577 
     39 H8         -0.0605   -0.0407   -0.0386 H         1 IDE         0.1485 
     40 H9         -0.4967   -2.3650    0.2827 H         1 IDE         0.1673 
     41 H10        -6.6939   -3.3346   -2.5891 H         1 IDE         0.1460 
     42 H11        -8.3430   -4.5699   -3.9542 H         1 IDE         0.1418 
     43 H12        -7.6066   -6.4401   -5.4075 H         1 IDE         0.1413 
     44 H13        -5.2102   -7.0745   -5.4945 H         1 IDE         0.1418 
     45 H14        -3.5509   -5.8481   -4.1350 H         1 IDE         0.1460 
     46 H15         0.6255  -11.2222   -2.9936 H         1 IDE         0.4993 
     47 H16         1.8482   -9.1252   -2.4816 H         1 IDE         0.0604 
     48 H17        -4.1820  -10.4986   -2.4235 H         1 IDE         0.0602 
@<TRIPOS>BOND
     1    1    2 1    
     2    1   33 1    
     3    1   34 1    
     4    1   35 1    
     5    2    3 1    
     6    2   36 1    
     7    2   37 1    
     8    3    4 1    
     9    3    5 1    
    10    3   23 1    
    11    5   16 ar   
    12    5    6 ar   
    13    6    7 ar   
    14    7   12 ar   
    15    7    8 ar   
    16    8    9 ar   
    17    8   14 ar   
    18    9   10 ar   
    19    9   13 1    
    20   10   11 ar   
    21   10   38 1    
    22   11   12 ar   
    23   11   39 1    
    24   12   40 1    
    25   14   15 2    
    26   14   16 ar   
    27   16   17 1    
    28   17   22 ar   
    29   17   18 ar   
    30   18   19 ar   
    31   18   41 1    
    32   19   20 ar   
    33   19   42 1    
    34   20   21 ar   
    35   20   43 1    
    36   21   22 ar   
    37   21   44 1    
    38   22   45 1    
    39   23   24 1    
    40   24   32 ar   
    41   24   25 ar   
    42   25   29 ar   
    43   25   26 ar   
    44   26   27 ar   
    45   26   30 ar   
    46   27   28 ar   
    47   27   46 1    
    48   28   29 ar   
    49   28   47 1    
    50   30   31 ar   
    51   31   48 1    
    52   31   32 ar   
@<TRIPOS>SUBSTRUCTURE
     1 IDE         1 GROUP             0       ****    0 ROOT    
@<TRIPOS>MOLECULE
5-fluoro-3-phenyl-2-[(1~{S})-1-(1~{H}-purin-6-ylamino)propyl]quinazolin-4-one
48   52    1
SMALL
USER_CHARGES


@<TRIPOS>ATOM
      1 C1         -5.2180   -5.1996    0.6441 C.3       1 IDE        -0.1002 
      2 C2         -3.9438   -5.9721    0.3330 C.3       1 IDE        -0.1058 
      3 C3         -3.5422   -5.8650   -1.1344 C.3       1 IDE         0.2139 
      4 H1         -4.3471   -6.3375   -1.7166 H         1 IDE         0.0676 
      5 C4         -3.2684   -4.4243   -1.5152 C.ar      1 IDE         0.4938 
      6 N1         -2.3191   -3.8360   -0.8542 N.2       1 IDE        -0.6356 
      7 C5         -2.0751   -2.4788   -1.0864 C.ar      1 IDE         0.2108 
      8 C6         -2.8340   -1.7334   -1.9885 C.ar      1 IDE        -0.2275 
      9 C7         -2.5800   -0.3700   -2.1802 C.ar      1 IDE         0.2034 
     10 C8         -1.5594    0.2518   -1.4623 C.ar      1 IDE        -0.1924 
     11 C9         -0.7952   -0.4837   -0.5597 C.ar      1 IDE        -0.0680 
     12 C10        -1.0530   -1.8424   -0.3725 C.ar      1 IDE        -0.1316 
     13 F1         -3.3006    0.3611   -3.0422 F         1 IDE        -0.1105 
     14 C11        -3.8939   -2.4176   -2.7585 C.ar      1 IDE         0.7173 
     15 O1         -4.5129   -1.7696   -3.5995 O.2       1 IDE        -0.5771 
     16 N2         -4.0507   -3.7930   -2.4853 N.pl3     1 IDE        -0.3237 
     17 C12        -5.0119   -4.5105   -3.2769 C.ar      1 IDE         0.0285 
     18 C13        -6.3595   -4.1535   -3.2293 C.ar      1 IDE        -0.1232 
     19 C14        -7.2927   -4.8487   -3.9984 C.ar      1 IDE        -0.1230 
     20 C15        -6.8784   -5.9009   -4.8150 C.ar      1 IDE        -0.1199 
     21 C16        -5.5308   -6.2580   -4.8625 C.ar      1 IDE        -0.1230 
     22 C17        -4.5976   -5.5628   -4.0934 C.ar      1 IDE        -0.1232 
     23 N3         -2.3142   -6.5528   -1.4252 N.2       1 IDE        -0.7651 
     24 C18        -2.2705   -7.8323   -1.7974 C.ar      1 IDE         0.4550 
     25 C19        -1.1114   -8.4938   -2.0754 C.ar      1 IDE        -0.2082 
     26 C20        -1.1078   -9.9051   -2.4826 C.ar      1 IDE         0.5756 
     27 N4          0.1130  -10.2980   -2.6883 N.ar      1 IDE        -0.6495 
     28 C21         0.8509   -9.1522   -2.4133 C.ar      1 IDE         0.5273 
     29 N5          0.1922   -8.0840   -2.0554 N.ar      1 IDE        -0.5848 
     30 N6         -2.2642  -10.6271   -2.6042 N.2       1 IDE        -0.5899 
     31 C22        -3.3450   -9.9593   -2.3304 C.ar      1 IDE         0.5751 
     32 N7         -3.4156   -8.6416   -1.9447 N.pl3     1 IDE        -0.7100 
     33 H2         -5.4621   -5.3095    1.7110 H         1 IDE         0.0467 
     34 H3         -6.0447   -5.5958    0.0361 H         1 IDE         0.0467 
     35 H4         -5.0679   -4.1353    0.4100 H         1 IDE         0.0467 
     36 H5         -3.1171   -5.5759    0.9410 H         1 IDE         0.0608 
     37 H6         -4.0938   -7.0364    0.5671 H         1 IDE         0.0608 
     38 H7         -1.3617    1.3100   -1.6059 H         1 IDE         0.1577 
     39 H8          0.0023   -0.0008   -0.0026 H         1 IDE         0.1485 
     40 H9         -0.4468   -2.4048    0.3338 H         1 IDE         0.1673 
     41 H10        -6.6935   -3.3344   -2.5974 H         1 IDE         0.1460 
     42 H11        -8.3420   -4.5709   -3.9621 H         1 IDE         0.1418 
     43 H12        -7.6051   -6.4425   -5.4134 H         1 IDE         0.1413 
     44 H13        -5.2087   -7.0771   -5.4987 H         1 IDE         0.1418 
     45 H14        -3.5499   -5.8495   -4.1396 H         1 IDE         0.1460 
     46 H16         1.9481   -9.1667   -2.5001 H         1 IDE         0.0604 
     47 H17        -4.3338  -10.4397   -2.3949 H         1 IDE         0.0602 
     48 H18        -4.4138   -8.2231   -1.7486 H         1 IDE         0.4517 
@<TRIPOS>BOND
     1    1    2 1    
     2    1   33 1    
     3    1   34 1    
     4    1   35 1    
     5    2    3 1    
     6    2   36 1    
     7    2   37 1    
     8    3    4 1    
     9    3    5 1    
    10    3   23 1    
    11    5   16 ar   
    12    5    6 ar   
    13    6    7 ar   
    14    7   12 ar   
    15    7    8 ar   
    16    8    9 ar   
    17    8   14 ar   
    18    9   10 ar   
    19    9   13 1    
    20   10   11 ar   
    21   10   38 1    
    22   11   12 ar   
    23   11   39 1    
    24   12   40 1    
    25   14   15 2    
    26   14   16 ar   
    27   16   17 1    
    28   17   22 ar   
    29   17   18 ar   
    30   18   19 ar   
    31   18   41 1    
    32   19   20 ar   
    33   19   42 1    
    34   20   21 ar   
    35   20   43 1    
    36   21   22 ar   
    37   21   44 1    
    38   22   45 1    
    39   23   24 1    
    40   24   32 ar   
    41   24   25 ar   
    42   25   29 ar   
    43   25   26 ar   
    44   26   27 ar   
    45   26   30 ar   
    46   27   28 ar   
    47   28   29 ar   
    48   28   46 1    
    49   30   31 ar   
    50   31   32 ar   
    51   31   47 1    
    52   32   48 1    
@<TRIPOS>SUBSTRUCTURE
     1 IDE         1 GROUP             0       ****    0 ROOT    
@<TRIPOS>MOLECULE
5-fluoro-3-phenyl-2-[(1~{S})-1-(1~{H}-purin-6-ylamino)propyl]quinazolin-4-one
50   54    1
SMALL
USER_CHARGES


@<TRIPOS>ATOM
      1 C1         -5.2169   -5.2027    0.6501 C.3       1 IDE        -0.1002 
      2 C2         -3.9428   -5.9748    0.3377 C.3       1 IDE        -0.1058 
      3 C3         -3.5419   -5.8663   -1.1298 C.3       1 IDE         0.2139 
      4 H1         -4.3470   -6.3383   -1.7121 H         1 IDE         0.0676 
      5 C4         -3.2683   -4.4253   -1.5094 C.ar      1 IDE         0.4938 
      6 N1         -2.3187   -3.8375   -0.8483 N.2       1 IDE        -0.6356 
      7 C5         -2.0749   -2.4801   -1.0793 C.ar      1 IDE         0.2108 
      8 C6         -2.8343   -1.7339   -1.9804 C.ar      1 IDE        -0.2275 
      9 C7         -2.5804   -0.3703   -2.1710 C.ar      1 IDE         0.2034 
     10 C8         -1.5595    0.2509   -1.4530 C.ar      1 IDE        -0.1924 
     11 C9         -0.7949   -0.4854   -0.5514 C.ar      1 IDE        -0.0680 
     12 C10        -1.0526   -1.8443   -0.3653 C.ar      1 IDE        -0.1316 
     13 F1         -3.3014    0.3615   -3.0320 F         1 IDE        -0.1105 
     14 C11        -3.8945   -2.4175   -2.7506 C.ar      1 IDE         0.7173 
     15 O1         -4.5139   -1.7687   -3.5907 O.2       1 IDE        -0.5771 
     16 N2         -4.0511   -3.7931   -2.4786 N.pl3     1 IDE        -0.3237 
     17 C12        -5.0126   -4.5100   -3.2704 C.ar      1 IDE         0.0285 
     18 C13        -6.3602   -4.1531   -3.2219 C.ar      1 IDE        -0.1232 
     19 C14        -7.2937   -4.8476   -3.9912 C.ar      1 IDE        -0.1230 
     20 C15        -6.8797   -5.8990   -4.8090 C.ar      1 IDE        -0.1199 
     21 C16        -5.5321   -6.2560   -4.8574 C.ar      1 IDE        -0.1230 
     22 C17        -4.5986   -5.5615   -4.0881 C.ar      1 IDE        -0.1232 
     23 N3         -2.3139   -6.5538   -1.4218 N.pl3     1 IDE        -0.7651 
     24 C18        -2.2703   -7.8330   -1.7952 C.ar      1 IDE         0.4550 
     25 C19        -1.1113   -8.4941   -2.0743 C.ar      1 IDE        -0.2082 
     26 C20        -1.1078   -9.9051   -2.4826 C.ar      1 IDE         0.5756 
     27 N4          0.1130  -10.2980   -2.6883 N.pl3     1 IDE        -0.6495 
     28 C21         0.8509   -9.1521   -2.4137 C.ar      1 IDE         0.5273 
     29 N5          0.1923   -8.0842   -2.0546 N.2       1 IDE        -0.5848 
     30 N6         -2.2642  -10.6271   -2.6042 N.pl3     1 IDE        -0.5899 
     31 C22        -3.3450   -9.9593   -2.3304 C.ar      1 IDE         0.5751 
     32 N7         -3.4154   -8.6422   -1.9425 N.ar      1 IDE        -0.7100 
     33 H2         -5.4606   -5.3135    1.7170 H         1 IDE         0.0467 
     34 H3         -6.0438   -5.5983    0.0420 H         1 IDE         0.0467 
     35 H4         -5.0670   -4.1382    0.4168 H         1 IDE         0.0467 
     36 H5         -3.1159   -5.5791    0.9457 H         1 IDE         0.0608 
     37 H6         -4.0926   -7.0393    0.5709 H         1 IDE         0.0608 
     38 H7         -1.3773    1.2254   -1.5841 H         1 IDE         0.1577 
     39 H8         -0.0605   -0.0407   -0.0386 H         1 IDE         0.1485 
     40 H9         -0.4967   -2.3650    0.2827 H         1 IDE         0.1673 
     41 H10        -6.6939   -3.3346   -2.5891 H         1 IDE         0.1460 
     42 H11        -8.3430   -4.5699   -3.9542 H         1 IDE         0.1418 
     43 H12        -7.6066   -6.4401   -5.4075 H         1 IDE         0.1413 
     44 H13        -5.2102   -7.0745   -5.4945 H         1 IDE         0.1418 
     45 H14        -3.5509   -5.8481   -4.1350 H         1 IDE         0.1460 
     46 H15         0.6255  -11.2222   -2.9936 H         1 IDE         0.4993 
     47 H16         1.8482   -9.1252   -2.4816 H         1 IDE         0.0604 
     48 H17        -4.1820  -10.4986   -2.4235 H         1 IDE         0.0602 
     49 H18        -1.3538   -6.0231   -1.3410 H         1 IDE         0.4517 
     50 H50        -2.2239  -11.6825   -2.9117 H         1 IDE         0.0000 
@<TRIPOS>BOND
     1    1    2 1    
     2    1   33 1    
     3    1   34 1    
     4    1   35 1    
     5    2    3 1    
     6    2   36 1    
     7    2   37 1    
     8    3    4 1    
     9    3    5 1    
    10    3   23 1    
    11    5   16 ar   
    12    5    6 ar   
    13    6    7 ar   
    14    7   12 ar   
    15    7    8 ar   
    16    8    9 ar   
    17    8   14 ar   
    18    9   10 ar   
    19    9   13 1    
    20   10   11 ar   
    21   10   38 1    
    22   11   12 ar   
    23   11   39 1    
    24   12   40 1    
    25   14   15 2    
    26   14   16 ar   
    27   16   17 1    
    28   17   22 ar   
    29   17   18 ar   
    30   18   19 ar   
    31   18   41 1    
    32   19   20 ar   
    33   19   42 1    
    34   20   21 ar   
    35   20   43 1    
    36   21   22 ar   
    37   21   44 1    
    38   22   45 1    
    39   23   24 1    
    40   23   49 1    
    41   24   32 ar   
    42   24   25 ar   
    43   25   29 ar   
    44   25   26 ar   
    45   26   27 ar   
    46   26   30 ar   
    47   27   28 ar   
    48   27   46 1    
    49   28   29 ar   
    50   28   47 1    
    51   30   31 ar   
    52   30   50 1    
    53   31   48 1    
    54   31   32 ar   
@<TRIPOS>SUBSTRUCTURE
     1 IDE         1 GROUP             0       ****    0 ROOT    
@<TRIPOS>MOLECULE
5-fluoro-3-phenyl-2-[(1~{S})-1-(1~{H}-purin-6-ylamino)propyl]quinazolin-4-one
49   53    1
SMALL
USER_CHARGES


@<TRIPOS>ATOM
      1 C1         -5.2180   -5.1996    0.6441 C.3       1 IDE        -0.1002 
      2 C2         -3.9438   -5.9721    0.3330 C.3       1 IDE        -0.1058 
      3 C3         -3.5422   -5.8650   -1.1344 C.3       1 IDE         0.2139 
      4 H1         -4.3471   -6.3375   -1.7166 H         1 IDE         0.0676 
      5 C4         -3.2684   -4.4243   -1.5152 C.ar      1 IDE         0.4938 
      6 N1         -2.3191   -3.8360   -0.8542 N.2       1 IDE        -0.6356 
      7 C5         -2.0751   -2.4788   -1.0864 C.ar      1 IDE         0.2108 
      8 C6         -2.8340   -1.7334   -1.9885 C.ar      1 IDE        -0.2275 
      9 C7         -2.5800   -0.3700   -2.1802 C.ar      1 IDE         0.2034 
     10 C8         -1.5594    0.2518   -1.4623 C.ar      1 IDE        -0.1924 
     11 C9         -0.7952   -0.4837   -0.5597 C.ar      1 IDE        -0.0680 
     12 C10        -1.0530   -1.8424   -0.3725 C.ar      1 IDE        -0.1316 
     13 F1         -3.3006    0.3611   -3.0422 F         1 IDE        -0.1105 
     14 C11        -3.8939   -2.4176   -2.7585 C.ar      1 IDE         0.7173 
     15 O1         -4.5129   -1.7696   -3.5995 O.2       1 IDE        -0.5771 
     16 N2         -4.0507   -3.7930   -2.4853 N.pl3     1 IDE        -0.3237 
     17 C12        -5.0119   -4.5105   -3.2769 C.ar      1 IDE         0.0285 
     18 C13        -6.3595   -4.1535   -3.2293 C.ar      1 IDE        -0.1232 
     19 C14        -7.2927   -4.8487   -3.9984 C.ar      1 IDE        -0.1230 
     20 C15        -6.8784   -5.9009   -4.8150 C.ar      1 IDE        -0.1199 
     21 C16        -5.5308   -6.2580   -4.8625 C.ar      1 IDE        -0.1230 
     22 C17        -4.5976   -5.5628   -4.0934 C.ar      1 IDE        -0.1232 
     23 N3         -2.3142   -6.5528   -1.4252 N.2       1 IDE        -0.7651 
     24 C18        -2.2705   -7.8323   -1.7974 C.ar      1 IDE         0.4550 
     25 C19        -1.1114   -8.4938   -2.0752 C.ar      1 IDE        -0.2082 
     26 C20        -1.1078   -9.9051   -2.4824 C.ar      1 IDE         0.5756 
     27 N4          0.1130  -10.2981   -2.6880 N.2       1 IDE        -0.6495 
     28 C21         0.8509   -9.1523   -2.4128 C.ar      1 IDE         0.5273 
     29 N5          0.1922   -8.0841   -2.0550 N.pl3     1 IDE        -0.5848 
     30 N6         -2.2641  -10.6274   -2.6033 N.2       1 IDE        -0.5899 
     31 C22        -3.3449   -9.9597   -2.3289 C.ar      1 IDE         0.5751 
     32 N7         -3.4155   -8.6421   -1.9429 N.pl3     1 IDE        -0.7100 
     33 H2         -5.4621   -5.3095    1.7110 H         1 IDE         0.0467 
     34 H3         -6.0447   -5.5958    0.0361 H         1 IDE         0.0467 
     35 H4         -5.0679   -4.1353    0.4100 H         1 IDE         0.0467 
     36 H5         -3.1171   -5.5759    0.9410 H         1 IDE         0.0608 
     37 H6         -4.0938   -7.0364    0.5671 H         1 IDE         0.0608 
     38 H7         -1.3770    1.2261   -1.5942 H         1 IDE         0.1577 
     39 H8         -0.0610   -0.0385   -0.0470 H         1 IDE         0.1485 
     40 H9         -0.4975   -2.3626    0.2762 H         1 IDE         0.1673 
     41 H10        -6.6935   -3.3344   -2.5974 H         1 IDE         0.1460 
     42 H11        -8.3420   -4.5709   -3.9621 H         1 IDE         0.1418 
     43 H12        -7.6051   -6.4425   -5.4134 H         1 IDE         0.1413 
     44 H13        -5.2087   -7.0771   -5.4987 H         1 IDE         0.1418 
     45 H14        -3.5499   -5.8495   -4.1396 H         1 IDE         0.1460 
     46 H15         0.4393   -7.0494   -1.7750 H         1 IDE         0.4993 
     47 H16         1.8476   -9.1684   -2.4925 H         1 IDE         0.0604 
     48 H17        -4.2376  -10.4062   -2.3904 H         1 IDE         0.0602 
     49 H18        -4.3925   -8.1816   -1.7346 H         1 IDE         0.4517 
@<TRIPOS>BOND
     1    1    2 1    
     2    1   33 1    
     3    1   34 1    
     4    1   35 1    
     5    2    3 1    
     6    2   36 1    
     7    2   37 1    
     8    3    4 1    
     9    3    5 1    
    10    3   23 1    
    11    5   16 ar   
    12    5    6 ar   
    13    6    7 ar   
    14    7   12 ar   
    15    7    8 ar   
    16    8    9 ar   
    17    8   14 ar   
    18    9   10 ar   
    19    9   13 1    
    20   10   11 ar   
    21   10   38 1    
    22   11   12 ar   
    23   11   39 1    
    24   12   40 1    
    25   14   15 2    
    26   14   16 ar   
    27   16   17 1    
    28   17   22 ar   
    29   17   18 ar   
    30   18   19 ar   
    31   18   41 1    
    32   19   20 ar   
    33   19   42 1    
    34   20   21 ar   
    35   20   43 1    
    36   21   22 ar   
    37   21   44 1    
    38   22   45 1    
    39   23   24 2    
    40   24   32 ar   
    41   24   25 ar   
    42   25   29 ar   
    43   25   26 ar   
    44   26   27 ar   
    45   26   30 ar   
    46   27   28 ar   
    47   28   29 ar   
    48   28   47 1    
    49   29   46 1    
    50   30   31 ar   
    51   31   48 1    
    52   31   32 ar   
    53   32   49 1    
@<TRIPOS>SUBSTRUCTURE
     1 IDE         1 GROUP             0       ****    0 ROOT    
@<TRIPOS>MOLECULE
5-fluoro-3-phenyl-2-[(1~{S})-1-(1~{H}-purin-6-ylamino)propyl]quinazolin-4-one
49   53    1
SMALL
USER_CHARGES


@<TRIPOS>ATOM
      1 C1          0.4604   -4.1220   -2.3937 C.3       1 IDE        -0.1002 
      2 C2         -0.7568   -5.0193   -2.5684 C.3       1 IDE        -0.1058 
      3 C3         -1.1374   -5.7406   -1.2797 C.3       1 IDE         0.2139 
      4 H1         -0.2939   -6.3997   -1.0266 H         1 IDE         0.0676 
      5 C4         -1.4943   -4.7488   -0.1913 C.ar      1 IDE         0.4938 
      6 N1         -2.4907   -3.9590   -0.4514 N.2       1 IDE        -0.6356 
      7 C5         -2.8153   -2.9561    0.4674 C.ar      1 IDE         0.2108 
      8 C6         -2.0884   -2.7641    1.6422 C.ar      1 IDE        -0.2275 
      9 C7         -2.4241   -1.7348    2.5299 C.ar      1 IDE         0.2034 
     10 C8         -3.4948   -0.8908    2.2384 C.ar      1 IDE        -0.1924 
     11 C9         -4.2276   -1.0745    1.0684 C.ar      1 IDE        -0.0680 
     12 C10        -3.8883   -2.1020    0.1870 C.ar      1 IDE        -0.1316 
     13 F1         -1.7353   -1.5358    3.6624 F         1 IDE        -0.1105 
     14 C11        -0.9736   -3.6861    1.9449 C.ar      1 IDE         0.7173 
     15 O1         -0.3814   -3.5521    3.0134 O.2       1 IDE        -0.5771 
     16 N2         -0.7357   -4.6879    0.9802 N.pl3     1 IDE        -0.3237 
     17 C12         0.2831   -5.6557    1.2816 C.ar      1 IDE         0.0285 
     18 C13         1.6045   -5.2448    1.4573 C.ar      1 IDE        -0.1232 
     19 C14         2.5935   -6.1836    1.7511 C.ar      1 IDE        -0.1230 
     20 C15         2.2612   -7.5331    1.8691 C.ar      1 IDE        -0.1199 
     21 C16         0.9398   -7.9440    1.6932 C.ar      1 IDE        -0.1230 
     22 C17        -0.0492   -7.0053    1.3994 C.ar      1 IDE        -0.1232 
     23 N3         -2.3142   -6.5528   -1.4252 N.2       1 IDE        -0.7651 
     24 C18        -2.2705   -7.8323   -1.7974 C.ar      1 IDE         0.4550 
     25 C19        -1.1114   -8.4938   -2.0752 C.ar      1 IDE        -0.2082 
     26 C20        -1.1078   -9.9051   -2.4824 C.ar      1 IDE         0.5756 
     27 N4          0.1130  -10.2981   -2.6880 N.2       1 IDE        -0.6495 
     28 C21         0.8509   -9.1523   -2.4128 C.ar      1 IDE         0.5273 
     29 N5          0.1922   -8.0841   -2.0550 N.pl3     1 IDE        -0.5848 
     30 N6         -2.2641  -10.6274   -2.6033 N.2       1 IDE        -0.5899 
     31 C22        -3.3449   -9.9597   -2.3289 C.ar      1 IDE         0.5751 
     32 N7         -3.4155   -8.6421   -1.9429 N.pl3     1 IDE        -0.7100 
     33 H2          0.6914   -3.6274   -3.3488 H         1 IDE         0.0467 
     34 H3          1.3213   -4.7293   -2.0777 H         1 IDE         0.0467 
     35 H4          0.2480   -3.3608   -1.6286 H         1 IDE         0.0467 
     36 H5         -1.6177   -4.4119   -2.8845 H         1 IDE         0.0608 
     37 H6         -0.5445   -5.7805   -3.3335 H         1 IDE         0.0608 
     38 H7         -3.7356   -0.1526    2.8685 H         1 IDE         0.1577 
     39 H8         -4.9976   -0.4712    0.8607 H         1 IDE         0.1485 
     40 H9         -4.4218   -2.2273   -0.6494 H         1 IDE         0.1673 
     41 H10         1.8747   -4.1955    1.3689 H         1 IDE         0.1460 
     42 H11         3.6224   -5.8642    1.8885 H         1 IDE         0.1418 
     43 H12         3.0314   -8.2640    2.0973 H         1 IDE         0.1413 
     44 H13         0.6816   -8.9948    1.7854 H         1 IDE         0.1418 
     45 H14        -1.0757   -7.3373    1.2656 H         1 IDE         0.1460 
     46 H15         0.4393   -7.0494   -1.7750 H         1 IDE         0.4993 
     47 H16         1.8476   -9.1684   -2.4925 H         1 IDE         0.0604 
     48 H17        -4.2376  -10.4062   -2.3904 H         1 IDE         0.0602 
     49 H18        -4.3925   -8.1816   -1.7346 H         1 IDE         0.4517 
@<TRIPOS>BOND
     1    1    2 1    
     2    1   33 1    
     3    1   34 1    
     4    1   35 1    
     5    2    3 1    
     6    2   36 1    
     7    2   37 1    
     8    3    4 1    
     9    3    5 1    
    10    3   23 1    
    11    5   16 ar   
    12    5    6 ar   
    13    6    7 ar   
    14    7   12 ar   
    15    7    8 ar   
    16    8    9 ar   
    17    8   14 ar   
    18    9   10 ar   
    19    9   13 1    
    20   10   11 ar   
    21   10   38 1    
    22   11   12 ar   
    23   11   39 1    
    24   12   40 1    
    25   14   15 2    
    26   14   16 ar   
    27   16   17 1    
    28   17   22 ar   
    29   17   18 ar   
    30   18   19 ar   
    31   18   41 1    
    32   19   20 ar   
    33   19   42 1    
    34   20   21 ar   
    35   20   43 1    
    36   21   22 ar   
    37   21   44 1    
    38   22   45 1    
    39   23   24 2    
    40   24   32 ar   
    41   24   25 ar   
    42   25   29 ar   
    43   25   26 ar   
    44   26   27 ar   
    45   26   30 ar   
    46   27   28 ar   
    47   28   29 ar   
    48   28   47 1    
    49   29   46 1    
    50   30   31 ar   
    51   31   48 1    
    52   31   32 ar   
    53   32   49 1    
@<TRIPOS>SUBSTRUCTURE
     1 IDE         1 GROUP             0       ****    0 ROOT    
@<TRIPOS>MOLECULE
5-fluoro-3-phenyl-2-[(1~{S})-1-(1~{H}-purin-6-ylamino)propyl]quinazolin-4-one
49   53    1
SMALL
USER_CHARGES


@<TRIPOS>ATOM
      1 C1         -5.2169   -5.2027    0.6501 C.3       1 IDE        -0.1002 
      2 C2         -3.9428   -5.9748    0.3377 C.3       1 IDE        -0.1058 
      3 C3         -3.5419   -5.8663   -1.1298 C.3       1 IDE         0.2139 
      4 H1         -4.3470   -6.3383   -1.7121 H         1 IDE         0.0676 
      5 C4         -3.2683   -4.4253   -1.5094 C.ar      1 IDE         0.4938 
      6 N1         -2.3187   -3.8375   -0.8483 N.pl3     1 IDE        -0.6356 
      7 C5         -2.0749   -2.4801   -1.0793 C.ar      1 IDE         0.2108 
      8 C6         -2.8343   -1.7339   -1.9804 C.ar      1 IDE        -0.2275 
      9 C7         -2.5804   -0.3703   -2.1710 C.ar      1 IDE         0.2034 
     10 C8         -1.5595    0.2509   -1.4530 C.ar      1 IDE        -0.1924 
     11 C9         -0.7949   -0.4854   -0.5514 C.ar      1 IDE        -0.0680 
     12 C10        -1.0526   -1.8443   -0.3653 C.ar      1 IDE        -0.1316 
     13 F1         -3.3014    0.3615   -3.0320 F         1 IDE        -0.1105 
     14 C11        -3.8945   -2.4175   -2.7506 C.ar      1 IDE         0.7173 
     15 O1         -4.5139   -1.7687   -3.5907 O.2       1 IDE        -0.5771 
     16 N2         -4.0511   -3.7931   -2.4786 N.pl3     1 IDE        -0.3237 
     17 C12        -5.0126   -4.5100   -3.2704 C.ar      1 IDE         0.0285 
     18 C13        -6.3602   -4.1531   -3.2219 C.ar      1 IDE        -0.1232 
     19 C14        -7.2937   -4.8476   -3.9912 C.ar      1 IDE        -0.1230 
     20 C15        -6.8797   -5.8990   -4.8090 C.ar      1 IDE        -0.1199 
     21 C16        -5.5321   -6.2560   -4.8574 C.ar      1 IDE        -0.1230 
     22 C17        -4.5986   -5.5615   -4.0881 C.ar      1 IDE        -0.1232 
     23 N3         -2.3139   -6.5538   -1.4218 N.pl3     1 IDE        -0.7651 
     24 C18        -2.2703   -7.8330   -1.7952 C.ar      1 IDE         0.4550 
     25 C19        -1.1113   -8.4941   -2.0743 C.ar      1 IDE        -0.2082 
     26 C20        -1.1078   -9.9051   -2.4826 C.ar      1 IDE         0.5756 
     27 N4          0.1130  -10.2980   -2.6883 N.2       1 IDE        -0.6495 
     28 C21         0.8509   -9.1521   -2.4137 C.ar      1 IDE         0.5273 
     29 N5          0.1923   -8.0842   -2.0546 N.ar      1 IDE        -0.5848 
     30 N6         -2.2642  -10.6271   -2.6042 N.ar      1 IDE        -0.5899 
     31 C22        -3.3450   -9.9593   -2.3304 C.ar      1 IDE         0.5751 
     32 N7         -3.4154   -8.6422   -1.9425 N.ar      1 IDE        -0.7100 
     33 H2         -5.4606   -5.3135    1.7170 H         1 IDE         0.0467 
     34 H3         -6.0438   -5.5983    0.0420 H         1 IDE         0.0467 
     35 H4         -5.0670   -4.1382    0.4168 H         1 IDE         0.0467 
     36 H5         -3.1159   -5.5791    0.9457 H         1 IDE         0.0608 
     37 H6         -4.0926   -7.0393    0.5709 H         1 IDE         0.0608 
     38 H7         -1.3773    1.2254   -1.5841 H         1 IDE         0.1577 
     39 H8         -0.0605   -0.0407   -0.0386 H         1 IDE         0.1485 
     40 H9         -0.4967   -2.3650    0.2827 H         1 IDE         0.1673 
     41 H10        -6.6939   -3.3346   -2.5891 H         1 IDE         0.1460 
     42 H11        -8.3430   -4.5699   -3.9542 H         1 IDE         0.1418 
     43 H12        -7.6066   -6.4401   -5.4075 H         1 IDE         0.1413 
     44 H13        -5.2102   -7.0745   -5.4945 H         1 IDE         0.1418 
     45 H14        -3.5509   -5.8481   -4.1350 H         1 IDE         0.1460 
     46 H16         1.8482   -9.1252   -2.4816 H         1 IDE         0.0604 
     47 H17        -4.1820  -10.4986   -2.4235 H         1 IDE         0.0602 
     48 H18        -1.3538   -6.0231   -1.3410 H         1 IDE         0.4517 
     49 H49        -1.7215   -4.4065   -0.1206 H         1 IDE         0.0000 
@<TRIPOS>BOND
     1    1    2 1    
     2    1   33 1    
     3    1   34 1    
     4    1   35 1    
     5    2    3 1    
     6    2   36 1    
     7    2   37 1    
     8    3    4 1    
     9    3    5 1    
    10    3   23 1    
    11    5   16 ar   
    12    5    6 ar   
    13    6    7 ar   
    14    6   49 1    
    15    7   12 ar   
    16    7    8 ar   
    17    8    9 ar   
    18    8   14 ar   
    19    9   10 ar   
    20    9   13 1    
    21   10   11 ar   
    22   10   38 1    
    23   11   12 ar   
    24   11   39 1    
    25   12   40 1    
    26   14   15 2    
    27   14   16 ar   
    28   16   17 1    
    29   17   22 ar   
    30   17   18 ar   
    31   18   19 ar   
    32   18   41 1    
    33   19   20 ar   
    34   19   42 1    
    35   20   21 ar   
    36   20   43 1    
    37   21   22 ar   
    38   21   44 1    
    39   22   45 1    
    40   23   24 1    
    41   23   48 1    
    42   24   32 ar   
    43   24   25 ar   
    44   25   29 ar   
    45   25   26 ar   
    46   26   27 ar   
    47   26   30 ar   
    48   27   28 ar   
    49   28   29 ar   
    50   28   46 1    
    51   30   31 ar   
    52   31   47 1    
    53   31   32 ar   
@<TRIPOS>SUBSTRUCTURE
     1 IDE         1 GROUP             0       ****    0 ROOT    
@<TRIPOS>MOLECULE
5-fluoro-3-phenyl-2-[(1~{S})-1-(1~{H}-purin-6-ylamino)propyl]quinazolin-4-one
48   52    1
SMALL
USER_CHARGES


@<TRIPOS>ATOM
      1 C1         -5.2169   -5.2027    0.6501 C.3       1 IDE        -0.1002 
      2 C2         -3.9428   -5.9748    0.3377 C.3       1 IDE        -0.1058 
      3 C3         -3.5419   -5.8663   -1.1298 C.3       1 IDE         0.2139 
      4 H1         -4.3470   -6.3383   -1.7121 H         1 IDE         0.0676 
      5 C4         -3.2683   -4.4253   -1.5094 C.ar      1 IDE         0.4938 
      6 N1         -2.3187   -3.8375   -0.8483 N.2       1 IDE        -0.6356 
      7 C5         -2.0749   -2.4801   -1.0793 C.ar      1 IDE         0.2108 
      8 C6         -2.8343   -1.7339   -1.9804 C.ar      1 IDE        -0.2275 
      9 C7         -2.5804   -0.3703   -2.1710 C.ar      1 IDE         0.2034 
     10 C8         -1.5595    0.2509   -1.4530 C.ar      1 IDE        -0.1924 
     11 C9         -0.7949   -0.4854   -0.5514 C.ar      1 IDE        -0.0680 
     12 C10        -1.0526   -1.8443   -0.3653 C.ar      1 IDE        -0.1316 
     13 F1         -3.3014    0.3615   -3.0320 F         1 IDE        -0.1105 
     14 C11        -3.8945   -2.4175   -2.7506 C.ar      1 IDE         0.7173 
     15 O1         -4.5139   -1.7687   -3.5907 O.2       1 IDE        -0.5771 
     16 N2         -4.0511   -3.7931   -2.4786 N.pl3     1 IDE        -0.3237 
     17 C12        -5.0126   -4.5100   -3.2704 C.ar      1 IDE         0.0285 
     18 C13        -6.3602   -4.1531   -3.2219 C.ar      1 IDE        -0.1232 
     19 C14        -7.2937   -4.8476   -3.9912 C.ar      1 IDE        -0.1230 
     20 C15        -6.8797   -5.8990   -4.8090 C.ar      1 IDE        -0.1199 
     21 C16        -5.5321   -6.2560   -4.8574 C.ar      1 IDE        -0.1230 
     22 C17        -4.5986   -5.5615   -4.0881 C.ar      1 IDE        -0.1232 
     23 N3         -2.3139   -6.5538   -1.4218 N.2       1 IDE        -0.7651 
     24 C18        -2.2703   -7.8330   -1.7952 C.ar      1 IDE         0.4550 
     25 C19        -1.1113   -8.4941   -2.0743 C.ar      1 IDE        -0.2082 
     26 C20        -1.1078   -9.9051   -2.4826 C.ar      1 IDE         0.5756 
     27 N4          0.1130  -10.2980   -2.6883 N.2       1 IDE        -0.6495 
     28 C21         0.8509   -9.1521   -2.4137 C.ar      1 IDE         0.5273 
     29 N5          0.1923   -8.0842   -2.0546 N.pl3     1 IDE        -0.5848 
     30 N6         -2.2642  -10.6271   -2.6042 N.ar      1 IDE        -0.5899 
     31 C22        -3.3450   -9.9593   -2.3304 C.ar      1 IDE         0.5751 
     32 N7         -3.4154   -8.6422   -1.9425 N.ar      1 IDE        -0.7100 
     33 H2         -5.4606   -5.3135    1.7170 H         1 IDE         0.0467 
     34 H3         -6.0438   -5.5983    0.0420 H         1 IDE         0.0467 
     35 H4         -5.0670   -4.1382    0.4168 H         1 IDE         0.0467 
     36 H5         -3.1159   -5.5791    0.9457 H         1 IDE         0.0608 
     37 H6         -4.0926   -7.0393    0.5709 H         1 IDE         0.0608 
     38 H7         -1.3773    1.2254   -1.5841 H         1 IDE         0.1577 
     39 H8         -0.0605   -0.0407   -0.0386 H         1 IDE         0.1485 
     40 H9         -0.4967   -2.3650    0.2827 H         1 IDE         0.1673 
     41 H10        -6.6939   -3.3346   -2.5891 H         1 IDE         0.1460 
     42 H11        -8.3430   -4.5699   -3.9542 H         1 IDE         0.1418 
     43 H12        -7.6066   -6.4401   -5.4075 H         1 IDE         0.1413 
     44 H13        -5.2102   -7.0745   -5.4945 H         1 IDE         0.1418 
     45 H14        -3.5509   -5.8481   -4.1350 H         1 IDE         0.1460 
     46 H15         0.4394   -7.0497   -1.7739 H         1 IDE         0.4993 
     47 H16         1.8475   -9.1680   -2.4940 H         1 IDE         0.0604 
     48 H17        -4.1820  -10.4986   -2.4235 H         1 IDE         0.0602 
@<TRIPOS>BOND
     1    1    2 1    
     2    1   33 1    
     3    1   34 1    
     4    1   35 1    
     5    2    3 1    
     6    2   36 1    
     7    2   37 1    
     8    3    4 1    
     9    3    5 1    
    10    3   23 1    
    11    5   16 ar   
    12    5    6 ar   
    13    6    7 ar   
    14    7   12 ar   
    15    7    8 ar   
    16    8    9 ar   
    17    8   14 ar   
    18    9   10 ar   
    19    9   13 1    
    20   10   11 ar   
    21   10   38 1    
    22   11   12 ar   
    23   11   39 1    
    24   12   40 1    
    25   14   15 2    
    26   14   16 ar   
    27   16   17 1    
    28   17   22 ar   
    29   17   18 ar   
    30   18   19 ar   
    31   18   41 1    
    32   19   20 ar   
    33   19   42 1    
    34   20   21 ar   
    35   20   43 1    
    36   21   22 ar   
    37   21   44 1    
    38   22   45 1    
    39   23   24 1    
    40   24   32 ar   
    41   24   25 ar   
    42   25   29 ar   
    43   25   26 ar   
    44   26   27 ar   
    45   26   30 ar   
    46   27   28 ar   
    47   28   29 ar   
    48   28   47 1    
    49   29   46 1    
    50   30   31 ar   
    51   31   48 1    
    52   31   32 ar   
@<TRIPOS>SUBSTRUCTURE
     1 IDE         1 GROUP             0       ****    0 ROOT    
@<TRIPOS>MOLECULE
5-fluoro-3-phenyl-2-[(1~{S})-1-(1~{H}-purin-6-ylamino)propyl]quinazolin-4-one
48   52    1
SMALL
USER_CHARGES


@<TRIPOS>ATOM
      1 C1          0.4604   -4.1220   -2.3937 C.3       1 IDE        -0.1002 
      2 C2         -0.7568   -5.0193   -2.5684 C.3       1 IDE        -0.1058 
      3 C3         -1.1374   -5.7406   -1.2797 C.3       1 IDE         0.2139 
      4 H1         -0.2939   -6.3997   -1.0266 H         1 IDE         0.0676 
      5 C4         -1.4943   -4.7488   -0.1913 C.ar      1 IDE         0.4938 
      6 N1         -2.4907   -3.9590   -0.4514 N.2       1 IDE        -0.6356 
      7 C5         -2.8153   -2.9561    0.4674 C.ar      1 IDE         0.2108 
      8 C6         -2.0884   -2.7641    1.6422 C.ar      1 IDE        -0.2275 
      9 C7         -2.4241   -1.7348    2.5299 C.ar      1 IDE         0.2034 
     10 C8         -3.4948   -0.8908    2.2384 C.ar      1 IDE        -0.1924 
     11 C9         -4.2276   -1.0745    1.0684 C.ar      1 IDE        -0.0680 
     12 C10        -3.8883   -2.1020    0.1870 C.ar      1 IDE        -0.1316 
     13 F1         -1.7353   -1.5358    3.6624 F         1 IDE        -0.1105 
     14 C11        -0.9736   -3.6861    1.9449 C.ar      1 IDE         0.7173 
     15 O1         -0.3814   -3.5521    3.0134 O.2       1 IDE        -0.5771 
     16 N2         -0.7357   -4.6879    0.9802 N.pl3     1 IDE        -0.3237 
     17 C12         0.2831   -5.6557    1.2816 C.ar      1 IDE         0.0285 
     18 C13         1.6045   -5.2448    1.4573 C.ar      1 IDE        -0.1232 
     19 C14         2.5935   -6.1836    1.7511 C.ar      1 IDE        -0.1230 
     20 C15         2.2612   -7.5331    1.8691 C.ar      1 IDE        -0.1199 
     21 C16         0.9398   -7.9440    1.6932 C.ar      1 IDE        -0.1230 
     22 C17        -0.0492   -7.0053    1.3994 C.ar      1 IDE        -0.1232 
     23 N3         -2.3142   -6.5528   -1.4252 N.2       1 IDE        -0.7651 
     24 C18        -2.2705   -7.8323   -1.7974 C.ar      1 IDE         0.4550 
     25 C19        -1.1114   -8.4938   -2.0752 C.ar      1 IDE        -0.2082 
     26 C20        -1.1078   -9.9051   -2.4824 C.ar      1 IDE         0.5756 
     27 N4          0.1130  -10.2981   -2.6880 N.pl3     1 IDE        -0.6495 
     28 C21         0.8509   -9.1523   -2.4128 C.ar      1 IDE         0.5273 
     29 N5          0.1922   -8.0841   -2.0550 N.2       1 IDE        -0.5848 
     30 N6         -2.2641  -10.6274   -2.6033 N.ar      1 IDE        -0.5899 
     31 C22        -3.3449   -9.9597   -2.3289 C.ar      1 IDE         0.5751 
     32 N7         -3.4155   -8.6421   -1.9429 N.2       1 IDE        -0.7100 
     33 H2          0.6914   -3.6274   -3.3488 H         1 IDE         0.0467 
     34 H3          1.3213   -4.7293   -2.0777 H         1 IDE         0.0467 
     35 H4          0.2480   -3.3608   -1.6286 H         1 IDE         0.0467 
     36 H5         -1.6177   -4.4119   -2.8845 H         1 IDE         0.0608 
     37 H6         -0.5445   -5.7805   -3.3335 H         1 IDE         0.0608 
     38 H7         -3.7356   -0.1526    2.8685 H         1 IDE         0.1577 
     39 H8         -4.9976   -0.4712    0.8607 H         1 IDE         0.1485 
     40 H9         -4.4218   -2.2273   -0.6494 H         1 IDE         0.1673 
     41 H10         1.8747   -4.1955    1.3689 H         1 IDE         0.1460 
     42 H11         3.6224   -5.8642    1.8885 H         1 IDE         0.1418 
     43 H12         3.0314   -8.2640    2.0973 H         1 IDE         0.1413 
     44 H13         0.6816   -8.9948    1.7854 H         1 IDE         0.1418 
     45 H14        -1.0757   -7.3373    1.2656 H         1 IDE         0.1460 
     46 H15         0.6256  -11.2222   -2.9934 H         1 IDE         0.4993 
     47 H16         1.8483   -9.1256   -2.4802 H         1 IDE         0.0604 
     48 H17        -4.2376  -10.4062   -2.3904 H         1 IDE         0.0602 
@<TRIPOS>BOND
     1    1    2 1    
     2    1   33 1    
     3    1   34 1    
     4    1   35 1    
     5    2    3 1    
     6    2   36 1    
     7    2   37 1    
     8    3    4 1    
     9    3    5 1    
    10    3   23 1    
    11    5   16 ar   
    12    5    6 ar   
    13    6    7 ar   
    14    7   12 ar   
    15    7    8 ar   
    16    8    9 ar   
    17    8   14 ar   
    18    9   10 ar   
    19    9   13 1    
    20   10   11 ar   
    21   10   38 1    
    22   11   12 ar   
    23   11   39 1    
    24   12   40 1    
    25   14   15 2    
    26   14   16 ar   
    27   16   17 1    
    28   17   22 ar   
    29   17   18 ar   
    30   18   19 ar   
    31   18   41 1    
    32   19   20 ar   
    33   19   42 1    
    34   20   21 ar   
    35   20   43 1    
    36   21   22 ar   
    37   21   44 1    
    38   22   45 1    
    39   23   24 2    
    40   24   32 ar   
    41   24   25 ar   
    42   25   29 ar   
    43   25   26 ar   
    44   26   27 ar   
    45   26   30 ar   
    46   27   28 ar   
    47   27   46 1    
    48   28   29 ar   
    49   28   47 1    
    50   30   31 ar   
    51   31   48 1    
    52   31   32 ar   
@<TRIPOS>SUBSTRUCTURE
     1 IDE         1 GROUP             0       ****    0 ROOT    
@<TRIPOS>MOLECULE
5-fluoro-3-phenyl-2-[(1~{S})-1-(1~{H}-purin-6-ylamino)propyl]quinazolin-4-one
48   52    1
SMALL
USER_CHARGES


@<TRIPOS>ATOM
      1 C1         -5.2180   -5.1996    0.6441 C.3       1 IDE        -0.1002 
      2 C2         -3.9438   -5.9721    0.3330 C.3       1 IDE        -0.1058 
      3 C3         -3.5422   -5.8650   -1.1344 C.3       1 IDE         0.2139 
      4 H1         -4.3471   -6.3375   -1.7166 H         1 IDE         0.0676 
      5 C4         -3.2684   -4.4243   -1.5152 C.ar      1 IDE         0.4938 
      6 N1         -2.3191   -3.8360   -0.8542 N.2       1 IDE        -0.6356 
      7 C5         -2.0751   -2.4788   -1.0864 C.ar      1 IDE         0.2108 
      8 C6         -2.8340   -1.7334   -1.9885 C.ar      1 IDE        -0.2275 
      9 C7         -2.5800   -0.3700   -2.1802 C.ar      1 IDE         0.2034 
     10 C8         -1.5594    0.2518   -1.4623 C.ar      1 IDE        -0.1924 
     11 C9         -0.7952   -0.4837   -0.5597 C.ar      1 IDE        -0.0680 
     12 C10        -1.0530   -1.8424   -0.3725 C.ar      1 IDE        -0.1316 
     13 F1         -3.3006    0.3611   -3.0422 F         1 IDE        -0.1105 
     14 C11        -3.8939   -2.4176   -2.7585 C.ar      1 IDE         0.7173 
     15 O1         -4.5129   -1.7696   -3.5995 O.2       1 IDE        -0.5771 
     16 N2         -4.0507   -3.7930   -2.4853 N.pl3     1 IDE        -0.3237 
     17 C12        -5.0119   -4.5105   -3.2769 C.ar      1 IDE         0.0285 
     18 C13        -6.3595   -4.1535   -3.2293 C.ar      1 IDE        -0.1232 
     19 C14        -7.2927   -4.8487   -3.9984 C.ar      1 IDE        -0.1230 
     20 C15        -6.8784   -5.9009   -4.8150 C.ar      1 IDE        -0.1199 
     21 C16        -5.5308   -6.2580   -4.8625 C.ar      1 IDE        -0.1230 
     22 C17        -4.5976   -5.5628   -4.0934 C.ar      1 IDE        -0.1232 
     23 N3         -2.3142   -6.5528   -1.4252 N.2       1 IDE        -0.7651 
     24 C18        -2.2705   -7.8323   -1.7974 C.ar      1 IDE         0.4550 
     25 C19        -1.1114   -8.4938   -2.0752 C.ar      1 IDE        -0.2082 
     26 C20        -1.1078   -9.9051   -2.4824 C.ar      1 IDE         0.5756 
     27 N4          0.1130  -10.2981   -2.6880 N.pl3     1 IDE        -0.6495 
     28 C21         0.8509   -9.1523   -2.4128 C.ar      1 IDE         0.5273 
     29 N5          0.1922   -8.0841   -2.0550 N.2       1 IDE        -0.5848 
     30 N6         -2.2641  -10.6274   -2.6033 N.ar      1 IDE        -0.5899 
     31 C22        -3.3449   -9.9597   -2.3289 C.ar      1 IDE         0.5751 
     32 N7         -3.4155   -8.6421   -1.9429 N.2       1 IDE        -0.7100 
     33 H2         -5.4621   -5.3095    1.7110 H         1 IDE         0.0467 
     34 H3         -6.0447   -5.5958    0.0361 H         1 IDE         0.0467 
     35 H4         -5.0679   -4.1353    0.4100 H         1 IDE         0.0467 
     36 H5         -3.1171   -5.5759    0.9410 H         1 IDE         0.0608 
     37 H6         -4.0938   -7.0364    0.5671 H         1 IDE         0.0608 
     38 H7         -1.3770    1.2261   -1.5942 H         1 IDE         0.1577 
     39 H8         -0.0610   -0.0385   -0.0470 H         1 IDE         0.1485 
     40 H9         -0.4975   -2.3626    0.2762 H         1 IDE         0.1673 
     41 H10        -6.6935   -3.3344   -2.5974 H         1 IDE         0.1460 
     42 H11        -8.3420   -4.5709   -3.9621 H         1 IDE         0.1418 
     43 H12        -7.6051   -6.4425   -5.4134 H         1 IDE         0.1413 
     44 H13        -5.2087   -7.0771   -5.4987 H         1 IDE         0.1418 
     45 H14        -3.5499   -5.8495   -4.1396 H         1 IDE         0.1460 
     46 H15         0.6256  -11.2222   -2.9934 H         1 IDE         0.4993 
     47 H16         1.8483   -9.1256   -2.4802 H         1 IDE         0.0604 
     48 H17        -4.2376  -10.4062   -2.3904 H         1 IDE         0.0602 
@<TRIPOS>BOND
     1    1    2 1    
     2    1   33 1    
     3    1   34 1    
     4    1   35 1    
     5    2    3 1    
     6    2   36 1    
     7    2   37 1    
     8    3    4 1    
     9    3    5 1    
    10    3   23 1    
    11    5   16 ar   
    12    5    6 ar   
    13    6    7 ar   
    14    7   12 ar   
    15    7    8 ar   
    16    8    9 ar   
    17    8   14 ar   
    18    9   10 ar   
    19    9   13 1    
    20   10   11 ar   
    21   10   38 1    
    22   11   12 ar   
    23   11   39 1    
    24   12   40 1    
    25   14   15 2    
    26   14   16 ar   
    27   16   17 1    
    28   17   22 ar   
    29   17   18 ar   
    30   18   19 ar   
    31   18   41 1    
    32   19   20 ar   
    33   19   42 1    
    34   20   21 ar   
    35   20   43 1    
    36   21   22 ar   
    37   21   44 1    
    38   22   45 1    
    39   23   24 2    
    40   24   32 ar   
    41   24   25 ar   
    42   25   29 ar   
    43   25   26 ar   
    44   26   27 ar   
    45   26   30 ar   
    46   27   28 ar   
    47   27   46 1    
    48   28   29 ar   
    49   28   47 1    
    50   30   31 ar   
    51   31   48 1    
    52   31   32 ar   
@<TRIPOS>SUBSTRUCTURE
     1 IDE         1 GROUP             0       ****    0 ROOT    
@<TRIPOS>MOLECULE
5-fluoro-3-phenyl-2-[(1~{S})-1-(1~{H}-purin-6-ylamino)propyl]quinazolin-4-one
50   54    1
SMALL
USER_CHARGES


@<TRIPOS>ATOM
      1 C1         -5.2180   -5.1996    0.6441 C.3       1 IDE        -0.1002 
      2 C2         -3.9438   -5.9721    0.3330 C.3       1 IDE        -0.1058 
      3 C3         -3.5422   -5.8650   -1.1344 C.3       1 IDE         0.2139 
      4 H1         -4.3471   -6.3375   -1.7166 H         1 IDE         0.0676 
      5 C4         -3.2684   -4.4243   -1.5152 C.ar      1 IDE         0.4938 
      6 N1         -2.3191   -3.8360   -0.8542 N.pl3     1 IDE        -0.6356 
      7 C5         -2.0751   -2.4788   -1.0864 C.ar      1 IDE         0.2108 
      8 C6         -2.8340   -1.7334   -1.9885 C.ar      1 IDE        -0.2275 
      9 C7         -2.5800   -0.3700   -2.1802 C.ar      1 IDE         0.2034 
     10 C8         -1.5594    0.2518   -1.4623 C.ar      1 IDE        -0.1924 
     11 C9         -0.7952   -0.4837   -0.5597 C.ar      1 IDE        -0.0680 
     12 C10        -1.0530   -1.8424   -0.3725 C.ar      1 IDE        -0.1316 
     13 F1         -3.3006    0.3611   -3.0422 F         1 IDE        -0.1105 
     14 C11        -3.8939   -2.4176   -2.7585 C.ar      1 IDE         0.7173 
     15 O1         -4.5129   -1.7696   -3.5995 O.2       1 IDE        -0.5771 
     16 N2         -4.0507   -3.7930   -2.4853 N.pl3     1 IDE        -0.3237 
     17 C12        -5.0119   -4.5105   -3.2769 C.ar      1 IDE         0.0285 
     18 C13        -6.3595   -4.1535   -3.2293 C.ar      1 IDE        -0.1232 
     19 C14        -7.2927   -4.8487   -3.9984 C.ar      1 IDE        -0.1230 
     20 C15        -6.8784   -5.9009   -4.8150 C.ar      1 IDE        -0.1199 
     21 C16        -5.5308   -6.2580   -4.8625 C.ar      1 IDE        -0.1230 
     22 C17        -4.5976   -5.5628   -4.0934 C.ar      1 IDE        -0.1232 
     23 N3         -2.3142   -6.5528   -1.4252 N.pl3     1 IDE        -0.7651 
     24 C18        -2.2705   -7.8323   -1.7974 C.ar      1 IDE         0.4550 
     25 C19        -1.1114   -8.4938   -2.0754 C.ar      1 IDE        -0.2082 
     26 C20        -1.1078   -9.9051   -2.4826 C.ar      1 IDE         0.5756 
     27 N4          0.1130  -10.2980   -2.6883 N.ar      1 IDE        -0.6495 
     28 C21         0.8509   -9.1522   -2.4133 C.ar      1 IDE         0.5273 
     29 N5          0.1922   -8.0840   -2.0554 N.ar      1 IDE        -0.5848 
     30 N6         -2.2642  -10.6271   -2.6042 N.2       1 IDE        -0.5899 
     31 C22        -3.3450   -9.9593   -2.3304 C.ar      1 IDE         0.5751 
     32 N7         -3.4156   -8.6416   -1.9447 N.pl3     1 IDE        -0.7100 
     33 H2         -5.4621   -5.3095    1.7110 H         1 IDE         0.0467 
     34 H3         -6.0447   -5.5958    0.0361 H         1 IDE         0.0467 
     35 H4         -5.0679   -4.1353    0.4100 H         1 IDE         0.0467 
     36 H5         -3.1171   -5.5759    0.9410 H         1 IDE         0.0608 
     37 H6         -4.0938   -7.0364    0.5671 H         1 IDE         0.0608 
     38 H7         -1.3617    1.3100   -1.6059 H         1 IDE         0.1577 
     39 H8          0.0023   -0.0008   -0.0026 H         1 IDE         0.1485 
     40 H9         -0.4468   -2.4048    0.3338 H         1 IDE         0.1673 
     41 H10        -6.6935   -3.3344   -2.5974 H         1 IDE         0.1460 
     42 H11        -8.3420   -4.5709   -3.9621 H         1 IDE         0.1418 
     43 H12        -7.6051   -6.4425   -5.4134 H         1 IDE         0.1413 
     44 H13        -5.2087   -7.0771   -5.4987 H         1 IDE         0.1418 
     45 H14        -3.5499   -5.8495   -4.1396 H         1 IDE         0.1460 
     46 H15        -1.3541   -6.0220   -1.3445 H         1 IDE         0.4993 
     47 H16         1.9481   -9.1667   -2.5001 H         1 IDE         0.0604 
     48 H17        -4.3338  -10.4397   -2.3949 H         1 IDE         0.0602 
     49 H18        -4.4138   -8.2231   -1.7486 H         1 IDE         0.4517 
     50 H50        -1.7222   -4.4044   -0.1257 H         1 IDE         0.0000 
@<TRIPOS>BOND
     1    1    2 1    
     2    1   33 1    
     3    1   34 1    
     4    1   35 1    
     5    2    3 1    
     6    2   36 1    
     7    2   37 1    
     8    3    4 1    
     9    3    5 1    
    10    3   23 1    
    11    5   16 ar   
    12    5    6 ar   
    13    6    7 ar   
    14    6   50 1    
    15    7   12 ar   
    16    7    8 ar   
    17    8    9 ar   
    18    8   14 ar   
    19    9   10 ar   
    20    9   13 1    
    21   10   11 ar   
    22   10   38 1    
    23   11   12 ar   
    24   11   39 1    
    25   12   40 1    
    26   14   15 2    
    27   14   16 ar   
    28   16   17 1    
    29   17   22 ar   
    30   17   18 ar   
    31   18   19 ar   
    32   18   41 1    
    33   19   20 ar   
    34   19   42 1    
    35   20   21 ar   
    36   20   43 1    
    37   21   22 ar   
    38   21   44 1    
    39   22   45 1    
    40   23   24 1    
    41   23   46 1    
    42   24   32 ar   
    43   24   25 ar   
    44   25   29 ar   
    45   25   26 ar   
    46   26   27 ar   
    47   26   30 ar   
    48   27   28 ar   
    49   28   29 ar   
    50   28   47 1    
    51   30   31 ar   
    52   31   32 ar   
    53   31   48 1    
    54   32   49 1    
@<TRIPOS>SUBSTRUCTURE
     1 IDE         1 GROUP             0       ****    0 ROOT    
@<TRIPOS>MOLECULE
5-fluoro-3-phenyl-2-[(1~{S})-1-(1~{H}-purin-6-ylamino)propyl]quinazolin-4-one
48   52    1
SMALL
USER_CHARGES


@<TRIPOS>ATOM
      1 C1         -5.2180   -5.1996    0.6441 C.3       1 IDE        -0.1002 
      2 C2         -3.9438   -5.9721    0.3330 C.3       1 IDE        -0.1058 
      3 C3         -3.5422   -5.8650   -1.1344 C.3       1 IDE         0.2139 
      4 H1         -4.3471   -6.3375   -1.7166 H         1 IDE         0.0676 
      5 C4         -3.2684   -4.4243   -1.5152 C.ar      1 IDE         0.4938 
      6 N1         -2.3191   -3.8360   -0.8542 N.2       1 IDE        -0.6356 
      7 C5         -2.0751   -2.4788   -1.0864 C.ar      1 IDE         0.2108 
      8 C6         -2.8340   -1.7334   -1.9885 C.ar      1 IDE        -0.2275 
      9 C7         -2.5800   -0.3700   -2.1802 C.ar      1 IDE         0.2034 
     10 C8         -1.5594    0.2518   -1.4623 C.ar      1 IDE        -0.1924 
     11 C9         -0.7952   -0.4837   -0.5597 C.ar      1 IDE        -0.0680 
     12 C10        -1.0530   -1.8424   -0.3725 C.ar      1 IDE        -0.1316 
     13 F1         -3.3006    0.3611   -3.0422 F         1 IDE        -0.1105 
     14 C11        -3.8939   -2.4176   -2.7585 C.ar      1 IDE         0.7173 
     15 O1         -4.5129   -1.7696   -3.5995 O.2       1 IDE        -0.5771 
     16 N2         -4.0507   -3.7930   -2.4853 N.pl3     1 IDE        -0.3237 
     17 C12        -5.0119   -4.5105   -3.2769 C.ar      1 IDE         0.0285 
     18 C13        -6.3595   -4.1535   -3.2293 C.ar      1 IDE        -0.1232 
     19 C14        -7.2927   -4.8487   -3.9984 C.ar      1 IDE        -0.1230 
     20 C15        -6.8784   -5.9009   -4.8150 C.ar      1 IDE        -0.1199 
     21 C16        -5.5308   -6.2580   -4.8625 C.ar      1 IDE        -0.1230 
     22 C17        -4.5976   -5.5628   -4.0934 C.ar      1 IDE        -0.1232 
     23 N3         -2.3142   -6.5528   -1.4252 N.2       1 IDE        -0.7651 
     24 C18        -2.2705   -7.8323   -1.7974 C.ar      1 IDE         0.4550 
     25 C19        -1.1114   -8.4938   -2.0752 C.ar      1 IDE        -0.2082 
     26 C20        -1.1078   -9.9051   -2.4824 C.ar      1 IDE         0.5756 
     27 N4          0.1130  -10.2981   -2.6880 N.2       1 IDE        -0.6495 
     28 C21         0.8509   -9.1523   -2.4128 C.ar      1 IDE         0.5273 
     29 N5          0.1922   -8.0841   -2.0550 N.pl3     1 IDE        -0.5848 
     30 N6         -2.2641  -10.6274   -2.6033 N.ar      1 IDE        -0.5899 
     31 C22        -3.3449   -9.9597   -2.3289 C.ar      1 IDE         0.5751 
     32 N7         -3.4155   -8.6421   -1.9429 N.2       1 IDE        -0.7100 
     33 H2         -5.4621   -5.3095    1.7110 H         1 IDE         0.0467 
     34 H3         -6.0447   -5.5958    0.0361 H         1 IDE         0.0467 
     35 H4         -5.0679   -4.1353    0.4100 H         1 IDE         0.0467 
     36 H5         -3.1171   -5.5759    0.9410 H         1 IDE         0.0608 
     37 H6         -4.0938   -7.0364    0.5671 H         1 IDE         0.0608 
     38 H7         -1.3770    1.2261   -1.5942 H         1 IDE         0.1577 
     39 H8         -0.0610   -0.0385   -0.0470 H         1 IDE         0.1485 
     40 H9         -0.4975   -2.3626    0.2762 H         1 IDE         0.1673 
     41 H10        -6.6935   -3.3344   -2.5974 H         1 IDE         0.1460 
     42 H11        -8.3420   -4.5709   -3.9621 H         1 IDE         0.1418 
     43 H12        -7.6051   -6.4425   -5.4134 H         1 IDE         0.1413 
     44 H13        -5.2087   -7.0771   -5.4987 H         1 IDE         0.1418 
     45 H14        -3.5499   -5.8495   -4.1396 H         1 IDE         0.1460 
     46 H15         0.4393   -7.0494   -1.7750 H         1 IDE         0.4993 
     47 H16         1.8476   -9.1684   -2.4925 H         1 IDE         0.0604 
     48 H17        -4.2376  -10.4062   -2.3904 H         1 IDE         0.0602 
@<TRIPOS>BOND
     1    1    2 1    
     2    1   33 1    
     3    1   34 1    
     4    1   35 1    
     5    2    3 1    
     6    2   36 1    
     7    2   37 1    
     8    3    4 1    
     9    3    5 1    
    10    3   23 1    
    11    5   16 ar   
    12    5    6 ar   
    13    6    7 ar   
    14    7   12 ar   
    15    7    8 ar   
    16    8    9 ar   
    17    8   14 ar   
    18    9   10 ar   
    19    9   13 1    
    20   10   11 ar   
    21   10   38 1    
    22   11   12 ar   
    23   11   39 1    
    24   12   40 1    
    25   14   15 2    
    26   14   16 ar   
    27   16   17 1    
    28   17   22 ar   
    29   17   18 ar   
    30   18   19 ar   
    31   18   41 1    
    32   19   20 ar   
    33   19   42 1    
    34   20   21 ar   
    35   20   43 1    
    36   21   22 ar   
    37   21   44 1    
    38   22   45 1    
    39   23   24 2    
    40   24   32 ar   
    41   24   25 ar   
    42   25   29 ar   
    43   25   26 ar   
    44   26   27 ar   
    45   26   30 ar   
    46   27   28 ar   
    47   28   29 ar   
    48   28   47 1    
    49   29   46 1    
    50   30   31 ar   
    51   31   48 1    
    52   31   32 ar   
@<TRIPOS>SUBSTRUCTURE
     1 IDE         1 GROUP             0       ****    0 ROOT    
@<TRIPOS>MOLECULE
5-fluoro-3-phenyl-2-[(1~{S})-1-(1~{H}-purin-6-ylamino)propyl]quinazolin-4-one
48   52    1
SMALL
USER_CHARGES


@<TRIPOS>ATOM
      1 C1          0.4604   -4.1220   -2.3937 C.3       1 IDE        -0.1002 
      2 C2         -0.7568   -5.0193   -2.5684 C.3       1 IDE        -0.1058 
      3 C3         -1.1374   -5.7406   -1.2797 C.3       1 IDE         0.2139 
      4 H1         -0.2939   -6.3997   -1.0266 H         1 IDE         0.0676 
      5 C4         -1.4943   -4.7488   -0.1913 C.ar      1 IDE         0.4938 
      6 N1         -2.4907   -3.9590   -0.4514 N.2       1 IDE        -0.6356 
      7 C5         -2.8153   -2.9561    0.4674 C.ar      1 IDE         0.2108 
      8 C6         -2.0884   -2.7641    1.6422 C.ar      1 IDE        -0.2275 
      9 C7         -2.4241   -1.7348    2.5299 C.ar      1 IDE         0.2034 
     10 C8         -3.4948   -0.8908    2.2384 C.ar      1 IDE        -0.1924 
     11 C9         -4.2276   -1.0745    1.0684 C.ar      1 IDE        -0.0680 
     12 C10        -3.8883   -2.1020    0.1870 C.ar      1 IDE        -0.1316 
     13 F1         -1.7353   -1.5358    3.6624 F         1 IDE        -0.1105 
     14 C11        -0.9736   -3.6861    1.9449 C.ar      1 IDE         0.7173 
     15 O1         -0.3814   -3.5521    3.0134 O.2       1 IDE        -0.5771 
     16 N2         -0.7357   -4.6879    0.9802 N.pl3     1 IDE        -0.3237 
     17 C12         0.2831   -5.6557    1.2816 C.ar      1 IDE         0.0285 
     18 C13         1.6045   -5.2448    1.4573 C.ar      1 IDE        -0.1232 
     19 C14         2.5935   -6.1836    1.7511 C.ar      1 IDE        -0.1230 
     20 C15         2.2612   -7.5331    1.8691 C.ar      1 IDE        -0.1199 
     21 C16         0.9398   -7.9440    1.6932 C.ar      1 IDE        -0.1230 
     22 C17        -0.0492   -7.0053    1.3994 C.ar      1 IDE        -0.1232 
     23 N3         -2.3142   -6.5528   -1.4252 N.2       1 IDE        -0.7651 
     24 C18        -2.2705   -7.8323   -1.7974 C.ar      1 IDE         0.4550 
     25 C19        -1.1114   -8.4938   -2.0752 C.ar      1 IDE        -0.2082 
     26 C20        -1.1078   -9.9051   -2.4824 C.ar      1 IDE         0.5756 
     27 N4          0.1130  -10.2981   -2.6880 N.2       1 IDE        -0.6495 
     28 C21         0.8509   -9.1523   -2.4128 C.ar      1 IDE         0.5273 
     29 N5          0.1922   -8.0841   -2.0550 N.pl3     1 IDE        -0.5848 
     30 N6         -2.2641  -10.6274   -2.6033 N.ar      1 IDE        -0.5899 
     31 C22        -3.3449   -9.9597   -2.3289 C.ar      1 IDE         0.5751 
     32 N7         -3.4155   -8.6421   -1.9429 N.2       1 IDE        -0.7100 
     33 H2          0.6914   -3.6274   -3.3488 H         1 IDE         0.0467 
     34 H3          1.3213   -4.7293   -2.0777 H         1 IDE         0.0467 
     35 H4          0.2480   -3.3608   -1.6286 H         1 IDE         0.0467 
     36 H5         -1.6177   -4.4119   -2.8845 H         1 IDE         0.0608 
     37 H6         -0.5445   -5.7805   -3.3335 H         1 IDE         0.0608 
     38 H7         -3.7356   -0.1526    2.8685 H         1 IDE         0.1577 
     39 H8         -4.9976   -0.4712    0.8607 H         1 IDE         0.1485 
     40 H9         -4.4218   -2.2273   -0.6494 H         1 IDE         0.1673 
     41 H10         1.8747   -4.1955    1.3689 H         1 IDE         0.1460 
     42 H11         3.6224   -5.8642    1.8885 H         1 IDE         0.1418 
     43 H12         3.0314   -8.2640    2.0973 H         1 IDE         0.1413 
     44 H13         0.6816   -8.9948    1.7854 H         1 IDE         0.1418 
     45 H14        -1.0757   -7.3373    1.2656 H         1 IDE         0.1460 
     46 H15         0.4393   -7.0494   -1.7750 H         1 IDE         0.4993 
     47 H16         1.8476   -9.1684   -2.4925 H         1 IDE         0.0604 
     48 H17        -4.2376  -10.4062   -2.3904 H         1 IDE         0.0602 
@<TRIPOS>BOND
     1    1    2 1    
     2    1   33 1    
     3    1   34 1    
     4    1   35 1    
     5    2    3 1    
     6    2   36 1    
     7    2   37 1    
     8    3    4 1    
     9    3    5 1    
    10    3   23 1    
    11    5   16 ar   
    12    5    6 ar   
    13    6    7 ar   
    14    7   12 ar   
    15    7    8 ar   
    16    8    9 ar   
    17    8   14 ar   
    18    9   10 ar   
    19    9   13 1    
    20   10   11 ar   
    21   10   38 1    
    22   11   12 ar   
    23   11   39 1    
    24   12   40 1    
    25   14   15 2    
    26   14   16 ar   
    27   16   17 1    
    28   17   22 ar   
    29   17   18 ar   
    30   18   19 ar   
    31   18   41 1    
    32   19   20 ar   
    33   19   42 1    
    34   20   21 ar   
    35   20   43 1    
    36   21   22 ar   
    37   21   44 1    
    38   22   45 1    
    39   23   24 2    
    40   24   32 ar   
    41   24   25 ar   
    42   25   29 ar   
    43   25   26 ar   
    44   26   27 ar   
    45   26   30 ar   
    46   27   28 ar   
    47   28   29 ar   
    48   28   47 1    
    49   29   46 1    
    50   30   31 ar   
    51   31   48 1    
    52   31   32 ar   
@<TRIPOS>SUBSTRUCTURE
     1 IDE         1 GROUP             0       ****    0 ROOT    
@<TRIPOS>MOLECULE
5-fluoro-3-phenyl-2-[(1~{S})-1-(1~{H}-purin-6-ylamino)propyl]quinazolin-4-one
50   54    1
SMALL
USER_CHARGES


@<TRIPOS>ATOM
      1 C1         -5.2179   -5.1978    0.6415 C.3       1 IDE        -0.1002 
      2 C2         -3.9437   -5.9704    0.3307 C.3       1 IDE        -0.1058 
      3 C3         -3.5424   -5.8643   -1.1369 C.3       1 IDE         0.2139 
      4 H1         -4.3473   -6.3372   -1.7186 H         1 IDE         0.0676 
      5 C4         -3.2688   -4.4238   -1.5187 C.ar      1 IDE         0.4938 
      6 N1         -2.3195   -3.8350   -0.8583 N.pl3     1 IDE        -0.6356 
      7 C5         -2.0756   -2.4779   -1.0915 C.ar      1 IDE         0.2108 
      8 C6         -2.8348   -1.7332   -1.9940 C.ar      1 IDE        -0.2275 
      9 C7         -2.5810   -0.3699   -2.1867 C.ar      1 IDE         0.2034 
     10 C8         -1.5603    0.2525   -1.4694 C.ar      1 IDE        -0.1924 
     11 C9         -0.7959   -0.4823   -0.5664 C.ar      1 IDE        -0.0680 
     12 C10        -1.0535   -1.8409   -0.3783 C.ar      1 IDE        -0.1316 
     13 F1         -3.3018    0.3605   -3.0490 F         1 IDE        -0.1105 
     14 C11        -3.8948   -2.4181   -2.7633 C.ar      1 IDE         0.7173 
     15 O1         -4.5140   -1.7707   -3.6046 O.2       1 IDE        -0.5771 
     16 N2         -4.0514   -3.7933   -2.4891 N.pl3     1 IDE        -0.3237 
     17 C12        -5.0127   -4.5114   -3.2800 C.ar      1 IDE         0.0285 
     18 C13        -6.3603   -4.1545   -3.2324 C.ar      1 IDE        -0.1232 
     19 C14        -7.2936   -4.8504   -4.0009 C.ar      1 IDE        -0.1230 
     20 C15        -6.8793   -5.9031   -4.8168 C.ar      1 IDE        -0.1199 
     21 C16        -5.5317   -6.2601   -4.8643 C.ar      1 IDE        -0.1230 
     22 C17        -4.5984   -5.5643   -4.0959 C.ar      1 IDE        -0.1232 
     23 N3         -2.3144   -6.5522   -1.4274 N.pl3     1 IDE        -0.7651 
     24 C18        -2.2706   -7.8319   -1.7988 C.ar      1 IDE         0.4550 
     25 C19        -1.1114   -8.4938   -2.0754 C.ar      1 IDE        -0.2082 
     26 C20        -1.1078   -9.9051   -2.4826 C.ar      1 IDE         0.5756 
     27 N4          0.1130  -10.2980   -2.6883 N.ar      1 IDE        -0.6495 
     28 C21         0.8509   -9.1522   -2.4133 C.ar      1 IDE         0.5273 
     29 N5          0.1922   -8.0840   -2.0554 N.ar      1 IDE        -0.5848 
     30 N6         -2.2641  -10.6274   -2.6033 N.pl3     1 IDE        -0.5899 
     31 C22        -3.3450   -9.9595   -2.3297 C.ar      1 IDE         0.5751 
     32 N7         -3.4156   -8.6415   -1.9451 N.2       1 IDE        -0.7100 
     33 H2         -5.4618   -5.3070    1.7085 H         1 IDE         0.0467 
     34 H3         -6.0446   -5.5945    0.0339 H         1 IDE         0.0467 
     35 H4         -5.0680   -4.1337    0.4066 H         1 IDE         0.0467 
     36 H5         -3.1170   -5.5737    0.9382 H         1 IDE         0.0608 
     37 H6         -4.0935   -7.0345    0.5656 H         1 IDE         0.0608 
     38 H7         -1.3781    1.2268   -1.6021 H         1 IDE         0.1577 
     39 H8         -0.0616   -0.0367   -0.0542 H         1 IDE         0.1485 
     40 H9         -0.4978   -2.3605    0.2707 H         1 IDE         0.1673 
     41 H10        -6.6942   -3.3350   -2.6010 H         1 IDE         0.1460 
     42 H11        -8.3429   -4.5727   -3.9645 H         1 IDE         0.1418 
     43 H12        -7.6061   -6.4452   -5.4147 H         1 IDE         0.1413 
     44 H13        -5.2096   -7.0796   -5.5000 H         1 IDE         0.1418 
     45 H14        -3.5507   -5.8509   -4.1421 H         1 IDE         0.1460 
     46 H15        -2.2238  -11.6830   -2.9100 H         1 IDE         0.4993 
     47 H16         1.8483   -9.1254   -2.4808 H         1 IDE         0.0604 
     48 H17        -4.1819  -10.4990   -2.4220 H         1 IDE         0.0602 
     49 H18        -1.3543   -6.0212   -1.3473 H         1 IDE         0.4517 
     50 H50        -1.7224   -4.4028   -0.1296 H         1 IDE         0.0000 
@<TRIPOS>BOND
     1    1    2 1    
     2    1   33 1    
     3    1   34 1    
     4    1   35 1    
     5    2    3 1    
     6    2   36 1    
     7    2   37 1    
     8    3    4 1    
     9    3    5 1    
    10    3   23 1    
    11    5   16 ar   
    12    5    6 ar   
    13    6    7 ar   
    14    6   50 1    
    15    7   12 ar   
    16    7    8 ar   
    17    8    9 ar   
    18    8   14 ar   
    19    9   10 ar   
    20    9   13 1    
    21   10   11 ar   
    22   10   38 1    
    23   11   12 ar   
    24   11   39 1    
    25   12   40 1    
    26   14   15 2    
    27   14   16 ar   
    28   16   17 1    
    29   17   22 ar   
    30   17   18 ar   
    31   18   19 ar   
    32   18   41 1    
    33   19   20 ar   
    34   19   42 1    
    35   20   21 ar   
    36   20   43 1    
    37   21   22 ar   
    38   21   44 1    
    39   22   45 1    
    40   23   24 1    
    41   23   49 1    
    42   24   32 ar   
    43   24   25 ar   
    44   25   29 ar   
    45   25   26 ar   
    46   26   27 ar   
    47   26   30 ar   
    48   27   28 ar   
    49   28   29 ar   
    50   28   47 1    
    51   30   31 ar   
    52   30   46 1    
    53   31   48 1    
    54   31   32 ar   
@<TRIPOS>SUBSTRUCTURE
     1 IDE         1 GROUP             0       ****    0 ROOT    
@<TRIPOS>MOLECULE
5-fluoro-3-phenyl-2-[(1~{S})-1-(1~{H}-purin-6-ylamino)propyl]quinazolin-4-one
51   55    1
SMALL
USER_CHARGES


@<TRIPOS>ATOM
      1 C1         -5.2169   -5.2027    0.6501 C.3       1 IDE        -0.1002 
      2 C2         -3.9428   -5.9748    0.3377 C.3       1 IDE        -0.1058 
      3 C3         -3.5419   -5.8663   -1.1298 C.3       1 IDE         0.2139 
      4 H1         -4.3470   -6.3383   -1.7121 H         1 IDE         0.0676 
      5 C4         -3.2683   -4.4253   -1.5094 C.ar      1 IDE         0.4938 
      6 N1         -2.3187   -3.8375   -0.8483 N.pl3     1 IDE        -0.6356 
      7 C5         -2.0749   -2.4801   -1.0793 C.ar      1 IDE         0.2108 
      8 C6         -2.8343   -1.7339   -1.9804 C.ar      1 IDE        -0.2275 
      9 C7         -2.5804   -0.3703   -2.1710 C.ar      1 IDE         0.2034 
     10 C8         -1.5595    0.2509   -1.4530 C.ar      1 IDE        -0.1924 
     11 C9         -0.7949   -0.4854   -0.5514 C.ar      1 IDE        -0.0680 
     12 C10        -1.0526   -1.8443   -0.3653 C.ar      1 IDE        -0.1316 
     13 F1         -3.3014    0.3615   -3.0320 F         1 IDE        -0.1105 
     14 C11        -3.8945   -2.4175   -2.7506 C.ar      1 IDE         0.7173 
     15 O1         -4.5139   -1.7687   -3.5907 O.2       1 IDE        -0.5771 
     16 N2         -4.0511   -3.7931   -2.4786 N.pl3     1 IDE        -0.3237 
     17 C12        -5.0126   -4.5100   -3.2704 C.ar      1 IDE         0.0285 
     18 C13        -6.3602   -4.1531   -3.2219 C.ar      1 IDE        -0.1232 
     19 C14        -7.2937   -4.8476   -3.9912 C.ar      1 IDE        -0.1230 
     20 C15        -6.8797   -5.8990   -4.8090 C.ar      1 IDE        -0.1199 
     21 C16        -5.5321   -6.2560   -4.8574 C.ar      1 IDE        -0.1230 
     22 C17        -4.5986   -5.5615   -4.0881 C.ar      1 IDE        -0.1232 
     23 N3         -2.3139   -6.5538   -1.4218 N.pl3     1 IDE        -0.7651 
     24 C18        -2.2703   -7.8330   -1.7952 C.ar      1 IDE         0.4550 
     25 C19        -1.1113   -8.4941   -2.0743 C.ar      1 IDE        -0.2082 
     26 C20        -1.1078   -9.9051   -2.4826 C.ar      1 IDE         0.5756 
     27 N4          0.1130  -10.2980   -2.6883 N.pl3     1 IDE        -0.6495 
     28 C21         0.8509   -9.1521   -2.4137 C.ar      1 IDE         0.5273 
     29 N5          0.1923   -8.0842   -2.0546 N.2       1 IDE        -0.5848 
     30 N6         -2.2642  -10.6271   -2.6042 N.ar      1 IDE        -0.5899 
     31 C22        -3.3450   -9.9593   -2.3304 C.ar      1 IDE         0.5751 
     32 N7         -3.4154   -8.6422   -1.9425 N.pl3     1 IDE        -0.7100 
     33 H2         -5.4606   -5.3135    1.7170 H         1 IDE         0.0467 
     34 H3         -6.0438   -5.5983    0.0420 H         1 IDE         0.0467 
     35 H4         -5.0670   -4.1382    0.4168 H         1 IDE         0.0467 
     36 H5         -3.1159   -5.5791    0.9457 H         1 IDE         0.0608 
     37 H6         -4.0926   -7.0393    0.5709 H         1 IDE         0.0608 
     38 H7         -1.3773    1.2254   -1.5841 H         1 IDE         0.1577 
     39 H8         -0.0605   -0.0407   -0.0386 H         1 IDE         0.1485 
     40 H9         -0.4967   -2.3650    0.2827 H         1 IDE         0.1673 
     41 H10        -6.6939   -3.3346   -2.5891 H         1 IDE         0.1460 
     42 H11        -8.3430   -4.5699   -3.9542 H         1 IDE         0.1418 
     43 H12        -7.6066   -6.4401   -5.4075 H         1 IDE         0.1413 
     44 H13        -5.2102   -7.0745   -5.4945 H         1 IDE         0.1418 
     45 H14        -3.5509   -5.8481   -4.1350 H         1 IDE         0.1460 
     46 H15         0.6255  -11.2222   -2.9936 H         1 IDE         0.4993 
     47 H16         1.8482   -9.1252   -2.4816 H         1 IDE         0.0604 
     48 H17        -4.1820  -10.4986   -2.4235 H         1 IDE         0.0602 
     49 H18        -1.3538   -6.0231   -1.3410 H         1 IDE         0.4517 
     50 H50        -4.3924   -8.1818   -1.7341 H         1 IDE         0.0000 
     51 H51        -1.7215   -4.4065   -0.1206 H         1 IDE         0.0000 
@<TRIPOS>BOND
     1    1    2 1    
     2    1   33 1    
     3    1   34 1    
     4    1   35 1    
     5    2    3 1    
     6    2   36 1    
     7    2   37 1    
     8    3    4 1    
     9    3    5 1    
    10    3   23 1    
    11    5   16 ar   
    12    5    6 ar   
    13    6    7 ar   
    14    6   51 1    
    15    7   12 ar   
    16    7    8 ar   
    17    8    9 ar   
    18    8   14 ar   
    19    9   10 ar   
    20    9   13 1    
    21   10   11 ar   
    22   10   38 1    
    23   11   12 ar   
    24   11   39 1    
    25   12   40 1    
    26   14   15 2    
    27   14   16 ar   
    28   16   17 1    
    29   17   22 ar   
    30   17   18 ar   
    31   18   19 ar   
    32   18   41 1    
    33   19   20 ar   
    34   19   42 1    
    35   20   21 ar   
    36   20   43 1    
    37   21   22 ar   
    38   21   44 1    
    39   22   45 1    
    40   23   24 1    
    41   23   49 1    
    42   24   32 ar   
    43   24   25 ar   
    44   25   29 ar   
    45   25   26 ar   
    46   26   27 ar   
    47   26   30 ar   
    48   27   28 ar   
    49   27   46 1    
    50   28   29 ar   
    51   28   47 1    
    52   30   31 ar   
    53   31   48 1    
    54   31   32 ar   
    55   32   50 1    
@<TRIPOS>SUBSTRUCTURE
     1 IDE         1 GROUP             0       ****    0 ROOT    
@<TRIPOS>MOLECULE
5-fluoro-3-phenyl-2-[(1~{S})-1-(1~{H}-purin-6-ylamino)propyl]quinazolin-4-one
49   53    1
SMALL
USER_CHARGES


@<TRIPOS>ATOM
      1 C1          0.4604   -4.1220   -2.3937 C.3       1 IDE        -0.1002 
      2 C2         -0.7568   -5.0193   -2.5684 C.3       1 IDE        -0.1058 
      3 C3         -1.1374   -5.7406   -1.2797 C.3       1 IDE         0.2139 
      4 H1         -0.2939   -6.3997   -1.0266 H         1 IDE         0.0676 
      5 C4         -1.4943   -4.7488   -0.1913 C.ar      1 IDE         0.4938 
      6 N1         -2.4907   -3.9590   -0.4514 N.2       1 IDE        -0.6356 
      7 C5         -2.8153   -2.9561    0.4674 C.ar      1 IDE         0.2108 
      8 C6         -2.0884   -2.7641    1.6422 C.ar      1 IDE        -0.2275 
      9 C7         -2.4241   -1.7348    2.5299 C.ar      1 IDE         0.2034 
     10 C8         -3.4948   -0.8908    2.2384 C.ar      1 IDE        -0.1924 
     11 C9         -4.2276   -1.0745    1.0684 C.ar      1 IDE        -0.0680 
     12 C10        -3.8883   -2.1020    0.1870 C.ar      1 IDE        -0.1316 
     13 F1         -1.7353   -1.5358    3.6624 F         1 IDE        -0.1105 
     14 C11        -0.9736   -3.6861    1.9449 C.ar      1 IDE         0.7173 
     15 O1         -0.3814   -3.5521    3.0134 O.2       1 IDE        -0.5771 
     16 N2         -0.7357   -4.6879    0.9802 N.pl3     1 IDE        -0.3237 
     17 C12         0.2831   -5.6557    1.2816 C.ar      1 IDE         0.0285 
     18 C13         1.6045   -5.2448    1.4573 C.ar      1 IDE        -0.1232 
     19 C14         2.5935   -6.1836    1.7511 C.ar      1 IDE        -0.1230 
     20 C15         2.2612   -7.5331    1.8691 C.ar      1 IDE        -0.1199 
     21 C16         0.9398   -7.9440    1.6932 C.ar      1 IDE        -0.1230 
     22 C17        -0.0492   -7.0053    1.3994 C.ar      1 IDE        -0.1232 
     23 N3         -2.3142   -6.5528   -1.4252 N.2       1 IDE        -0.7651 
     24 C18        -2.2705   -7.8323   -1.7974 C.ar      1 IDE         0.4550 
     25 C19        -1.1114   -8.4938   -2.0752 C.ar      1 IDE        -0.2082 
     26 C20        -1.1078   -9.9051   -2.4824 C.ar      1 IDE         0.5756 
     27 N4          0.1130  -10.2981   -2.6880 N.2       1 IDE        -0.6495 
     28 C21         0.8509   -9.1523   -2.4128 C.ar      1 IDE         0.5273 
     29 N5          0.1922   -8.0841   -2.0550 N.pl3     1 IDE        -0.5848 
     30 N6         -2.2641  -10.6274   -2.6033 N.pl3     1 IDE        -0.5899 
     31 C22        -3.3449   -9.9597   -2.3289 C.ar      1 IDE         0.5751 
     32 N7         -3.4155   -8.6421   -1.9429 N.2       1 IDE        -0.7100 
     33 H2          0.6914   -3.6274   -3.3488 H         1 IDE         0.0467 
     34 H3          1.3213   -4.7293   -2.0777 H         1 IDE         0.0467 
     35 H4          0.2480   -3.3608   -1.6286 H         1 IDE         0.0467 
     36 H5         -1.6177   -4.4119   -2.8845 H         1 IDE         0.0608 
     37 H6         -0.5445   -5.7805   -3.3335 H         1 IDE         0.0608 
     38 H7         -3.7356   -0.1526    2.8685 H         1 IDE         0.1577 
     39 H8         -4.9976   -0.4712    0.8607 H         1 IDE         0.1485 
     40 H9         -4.4218   -2.2273   -0.6494 H         1 IDE         0.1673 
     41 H10         1.8747   -4.1955    1.3689 H         1 IDE         0.1460 
     42 H11         3.6224   -5.8642    1.8885 H         1 IDE         0.1418 
     43 H12         3.0314   -8.2640    2.0973 H         1 IDE         0.1413 
     44 H13         0.6816   -8.9948    1.7854 H         1 IDE         0.1418 
     45 H14        -1.0757   -7.3373    1.2656 H         1 IDE         0.1460 
     46 H15         0.4393   -7.0494   -1.7750 H         1 IDE         0.4993 
     47 H16         1.8476   -9.1684   -2.4925 H         1 IDE         0.0604 
     48 H17        -4.2376  -10.4062   -2.3904 H         1 IDE         0.0602 
     49 H49        -2.2239  -11.6827   -2.9109 H         1 IDE         0.0000 
@<TRIPOS>BOND
     1    1    2 1    
     2    1   33 1    
     3    1   34 1    
     4    1   35 1    
     5    2    3 1    
     6    2   36 1    
     7    2   37 1    
     8    3    4 1    
     9    3    5 1    
    10    3   23 1    
    11    5   16 ar   
    12    5    6 ar   
    13    6    7 ar   
    14    7   12 ar   
    15    7    8 ar   
    16    8    9 ar   
    17    8   14 ar   
    18    9   10 ar   
    19    9   13 1    
    20   10   11 ar   
    21   10   38 1    
    22   11   12 ar   
    23   11   39 1    
    24   12   40 1    
    25   14   15 2    
    26   14   16 ar   
    27   16   17 1    
    28   17   22 ar   
    29   17   18 ar   
    30   18   19 ar   
    31   18   41 1    
    32   19   20 ar   
    33   19   42 1    
    34   20   21 ar   
    35   20   43 1    
    36   21   22 ar   
    37   21   44 1    
    38   22   45 1    
    39   23   24 2    
    40   24   32 ar   
    41   24   25 ar   
    42   25   29 ar   
    43   25   26 ar   
    44   26   27 ar   
    45   26   30 ar   
    46   27   28 ar   
    47   28   29 ar   
    48   28   47 1    
    49   29   46 1    
    50   30   31 ar   
    51   30   49 1    
    52   31   48 1    
    53   31   32 ar   
@<TRIPOS>SUBSTRUCTURE
     1 IDE         1 GROUP             0       ****    0 ROOT    
@<TRIPOS>MOLECULE
5-fluoro-3-phenyl-2-[(1~{S})-1-(1~{H}-purin-6-ylamino)propyl]quinazolin-4-one
49   53    1
SMALL
USER_CHARGES


@<TRIPOS>ATOM
      1 C1         -5.2180   -5.1996    0.6441 C.3       1 IDE        -0.1002 
      2 C2         -3.9438   -5.9721    0.3330 C.3       1 IDE        -0.1058 
      3 C3         -3.5422   -5.8650   -1.1344 C.3       1 IDE         0.2139 
      4 H1         -4.3471   -6.3375   -1.7166 H         1 IDE         0.0676 
      5 C4         -3.2684   -4.4243   -1.5152 C.ar      1 IDE         0.4938 
      6 N1         -2.3191   -3.8360   -0.8542 N.2       1 IDE        -0.6356 
      7 C5         -2.0751   -2.4788   -1.0864 C.ar      1 IDE         0.2108 
      8 C6         -2.8340   -1.7334   -1.9885 C.ar      1 IDE        -0.2275 
      9 C7         -2.5800   -0.3700   -2.1802 C.ar      1 IDE         0.2034 
     10 C8         -1.5594    0.2518   -1.4623 C.ar      1 IDE        -0.1924 
     11 C9         -0.7952   -0.4837   -0.5597 C.ar      1 IDE        -0.0680 
     12 C10        -1.0530   -1.8424   -0.3725 C.ar      1 IDE        -0.1316 
     13 F1         -3.3006    0.3611   -3.0422 F         1 IDE        -0.1105 
     14 C11        -3.8939   -2.4176   -2.7585 C.ar      1 IDE         0.7173 
     15 O1         -4.5129   -1.7696   -3.5995 O.2       1 IDE        -0.5771 
     16 N2         -4.0507   -3.7930   -2.4853 N.pl3     1 IDE        -0.3237 
     17 C12        -5.0119   -4.5105   -3.2769 C.ar      1 IDE         0.0285 
     18 C13        -6.3595   -4.1535   -3.2293 C.ar      1 IDE        -0.1232 
     19 C14        -7.2927   -4.8487   -3.9984 C.ar      1 IDE        -0.1230 
     20 C15        -6.8784   -5.9009   -4.8150 C.ar      1 IDE        -0.1199 
     21 C16        -5.5308   -6.2580   -4.8625 C.ar      1 IDE        -0.1230 
     22 C17        -4.5976   -5.5628   -4.0934 C.ar      1 IDE        -0.1232 
     23 N3         -2.3142   -6.5528   -1.4252 N.2       1 IDE        -0.7651 
     24 C18        -2.2705   -7.8323   -1.7974 C.ar      1 IDE         0.4550 
     25 C19        -1.1114   -8.4938   -2.0752 C.ar      1 IDE        -0.2082 
     26 C20        -1.1078   -9.9051   -2.4824 C.ar      1 IDE         0.5756 
     27 N4          0.1130  -10.2981   -2.6880 N.2       1 IDE        -0.6495 
     28 C21         0.8509   -9.1523   -2.4128 C.ar      1 IDE         0.5273 
     29 N5          0.1922   -8.0841   -2.0550 N.pl3     1 IDE        -0.5848 
     30 N6         -2.2641  -10.6274   -2.6033 N.pl3     1 IDE        -0.5899 
     31 C22        -3.3449   -9.9597   -2.3289 C.ar      1 IDE         0.5751 
     32 N7         -3.4155   -8.6421   -1.9429 N.2       1 IDE        -0.7100 
     33 H2         -5.4621   -5.3095    1.7110 H         1 IDE         0.0467 
     34 H3         -6.0447   -5.5958    0.0361 H         1 IDE         0.0467 
     35 H4         -5.0679   -4.1353    0.4100 H         1 IDE         0.0467 
     36 H5         -3.1171   -5.5759    0.9410 H         1 IDE         0.0608 
     37 H6         -4.0938   -7.0364    0.5671 H         1 IDE         0.0608 
     38 H7         -1.3770    1.2261   -1.5942 H         1 IDE         0.1577 
     39 H8         -0.0610   -0.0385   -0.0470 H         1 IDE         0.1485 
     40 H9         -0.4975   -2.3626    0.2762 H         1 IDE         0.1673 
     41 H10        -6.6935   -3.3344   -2.5974 H         1 IDE         0.1460 
     42 H11        -8.3420   -4.5709   -3.9621 H         1 IDE         0.1418 
     43 H12        -7.6051   -6.4425   -5.4134 H         1 IDE         0.1413 
     44 H13        -5.2087   -7.0771   -5.4987 H         1 IDE         0.1418 
     45 H14        -3.5499   -5.8495   -4.1396 H         1 IDE         0.1460 
     46 H15         0.4393   -7.0494   -1.7750 H         1 IDE         0.4993 
     47 H16         1.8476   -9.1684   -2.4925 H         1 IDE         0.0604 
     48 H17        -4.2376  -10.4062   -2.3904 H         1 IDE         0.0602 
     49 H49        -2.2239  -11.6827   -2.9109 H         1 IDE         0.0000 
@<TRIPOS>BOND
     1    1    2 1    
     2    1   33 1    
     3    1   34 1    
     4    1   35 1    
     5    2    3 1    
     6    2   36 1    
     7    2   37 1    
     8    3    4 1    
     9    3    5 1    
    10    3   23 1    
    11    5   16 ar   
    12    5    6 ar   
    13    6    7 ar   
    14    7   12 ar   
    15    7    8 ar   
    16    8    9 ar   
    17    8   14 ar   
    18    9   10 ar   
    19    9   13 1    
    20   10   11 ar   
    21   10   38 1    
    22   11   12 ar   
    23   11   39 1    
    24   12   40 1    
    25   14   15 2    
    26   14   16 ar   
    27   16   17 1    
    28   17   22 ar   
    29   17   18 ar   
    30   18   19 ar   
    31   18   41 1    
    32   19   20 ar   
    33   19   42 1    
    34   20   21 ar   
    35   20   43 1    
    36   21   22 ar   
    37   21   44 1    
    38   22   45 1    
    39   23   24 2    
    40   24   32 ar   
    41   24   25 ar   
    42   25   29 ar   
    43   25   26 ar   
    44   26   27 ar   
    45   26   30 ar   
    46   27   28 ar   
    47   28   29 ar   
    48   28   47 1    
    49   29   46 1    
    50   30   31 ar   
    51   30   49 1    
    52   31   48 1    
    53   31   32 ar   
@<TRIPOS>SUBSTRUCTURE
     1 IDE         1 GROUP             0       ****    0 ROOT    
