5-fluoro-3-phenyl-2-[(1~{S})-1-(1~{H}-purin-6-ylamino)propyl]quinazolin-4-one
                    3D
 Structure written by MMmdl.
 49 53  0  0  1  0            999 V2000
   -5.2169   -5.2027    0.6501 C   0  0  0  0  0  0
   -3.9428   -5.9748    0.3377 C   0  0  0  0  0  0
   -3.5419   -5.8663   -1.1298 C   0  0  1  0  0  0
   -4.3470   -6.3383   -1.7121 H   0  0  0  0  0  0
   -3.2683   -4.4253   -1.5094 C   0  0  0  0  0  0
   -2.3187   -3.8375   -0.8483 N   0  0  0  0  0  0
   -2.0749   -2.4801   -1.0793 C   0  0  0  0  0  0
   -2.8343   -1.7339   -1.9804 C   0  0  0  0  0  0
   -2.5804   -0.3703   -2.1710 C   0  0  0  0  0  0
   -1.5595    0.2509   -1.4530 C   0  0  0  0  0  0
   -0.7949   -0.4854   -0.5514 C   0  0  0  0  0  0
   -1.0526   -1.8443   -0.3653 C   0  0  0  0  0  0
   -3.3014    0.3615   -3.0320 F   0  0  0  0  0  0
   -3.8945   -2.4175   -2.7506 C   0  0  0  0  0  0
   -4.5139   -1.7687   -3.5907 O   0  0  0  0  0  0
   -4.0511   -3.7931   -2.4786 N   0  0  0  0  0  0
   -5.0126   -4.5100   -3.2704 C   0  0  0  0  0  0
   -6.3602   -4.1531   -3.2219 C   0  0  0  0  0  0
   -7.2937   -4.8476   -3.9912 C   0  0  0  0  0  0
   -6.8797   -5.8990   -4.8090 C   0  0  0  0  0  0
   -5.5321   -6.2560   -4.8574 C   0  0  0  0  0  0
   -4.5986   -5.5615   -4.0881 C   0  0  0  0  0  0
   -2.3139   -6.5538   -1.4218 N   0  0  0  0  0  0
   -2.2703   -7.8330   -1.7952 C   0  0  0  0  0  0
   -1.1113   -8.4941   -2.0743 C   0  0  0  0  0  0
   -1.1078   -9.9051   -2.4826 C   0  0  0  0  0  0
    0.1130  -10.2980   -2.6883 N   0  0  0  0  0  0
    0.8509   -9.1521   -2.4137 C   0  0  0  0  0  0
    0.1923   -8.0842   -2.0546 N   0  0  0  0  0  0
   -2.2642  -10.6271   -2.6042 N   0  0  0  0  0  0
   -3.3450   -9.9593   -2.3304 C   0  0  0  0  0  0
   -3.4154   -8.6422   -1.9425 N   0  0  0  0  0  0
   -5.4606   -5.3135    1.7170 H   0  0  0  0  0  0
   -6.0438   -5.5983    0.0420 H   0  0  0  0  0  0
   -5.0670   -4.1382    0.4168 H   0  0  0  0  0  0
   -3.1159   -5.5791    0.9457 H   0  0  0  0  0  0
   -4.0926   -7.0393    0.5709 H   0  0  0  0  0  0
   -1.3773    1.2254   -1.5841 H   0  0  0  0  0  0
   -0.0605   -0.0407   -0.0386 H   0  0  0  0  0  0
   -0.4967   -2.3650    0.2827 H   0  0  0  0  0  0
   -6.6939   -3.3346   -2.5891 H   0  0  0  0  0  0
   -8.3430   -4.5699   -3.9542 H   0  0  0  0  0  0
   -7.6066   -6.4401   -5.4075 H   0  0  0  0  0  0
   -5.2102   -7.0745   -5.4945 H   0  0  0  0  0  0
   -3.5509   -5.8481   -4.1350 H   0  0  0  0  0  0
    0.6255  -11.2222   -2.9936 H   0  0  0  0  0  0
    1.8482   -9.1252   -2.4816 H   0  0  0  0  0  0
   -4.1820  -10.4986   -2.4235 H   0  0  0  0  0  0
   -1.3538   -6.0231   -1.3410 H   0  0  0  0  0  0
  1  2  1  0  0  0
  1 33  1  0  0  0
  1 34  1  0  0  0
  1 35  1  0  0  0
  2  3  1  0  0  0
  2 36  1  0  0  0
  2 37  1  0  0  0
  3  4  1  0  0  0
  3  5  1  0  0  0
  3 23  1  0  0  0
  5 16  1  0  0  0
  5  6  2  0  0  0
  6  7  1  0  0  0
  7 12  2  0  0  0
  7  8  1  0  0  0
  8  9  2  0  0  0
  8 14  1  0  0  0
  9 10  1  0  0  0
  9 13  1  0  0  0
 10 11  2  0  0  0
 10 38  1  0  0  0
 11 12  1  0  0  0
 11 39  1  0  0  0
 12 40  1  0  0  0
 14 15  2  0  0  0
 14 16  1  0  0  0
 16 17  1  0  0  0
 17 22  2  0  0  0
 17 18  1  0  0  0
 18 19  2  0  0  0
 18 41  1  0  0  0
 19 20  1  0  0  0
 19 42  1  0  0  0
 20 21  2  0  0  0
 20 43  1  0  0  0
 21 22  1  0  0  0
 21 44  1  0  0  0
 22 45  1  0  0  0
 23 24  1  0  0  0
 23 49  1  0  0  0
 24 32  1  0  0  0
 24 25  2  0  0  0
 25 29  1  0  0  0
 25 26  1  0  0  0
 26 27  1  0  0  0
 26 30  2  0  0  0
 27 28  1  0  0  0
 27 46  1  0  0  0
 28 29  2  0  0  0
 28 47  1  0  0  0
 30 31  1  0  0  0
 31 48  1  0  0  0
 31 32  2  0  0  0
M  END
> <s_m_source_file>
/Users/andrea/Development/mcce-charges/epik_inhibitors/output/Idelalisib/Idelalisib-input.mol2

> <i_m_source_file_index>
1

> <r_lp_tautomer_probability>
0.95558173703543

> <r_epik_Ionization_Penalty>
  0.0030

> <r_epik_Ionization_Penalty_Charging>
  0.0000

> <r_epik_Ionization_Penalty_Neutral>
  0.0030

> <r_epik_State_Penalty>
  0.0977

> <i_epik_Tot_Q>
0

$$$$
5-fluoro-3-phenyl-2-[(1~{S})-1-(1~{H}-purin-6-ylamino)propyl]quinazolin-4-one
                    3D
 Structure written by MMmdl.
 48 52  0  0  1  0            999 V2000
   -5.2169   -5.2027    0.6501 C   0  0  0  0  0  0
   -3.9428   -5.9748    0.3377 C   0  0  0  0  0  0
   -3.5419   -5.8663   -1.1298 C   0  0  1  0  0  0
   -4.3470   -6.3383   -1.7121 H   0  0  0  0  0  0
   -3.2683   -4.4253   -1.5094 C   0  0  0  0  0  0
   -2.3187   -3.8375   -0.8483 N   0  0  0  0  0  0
   -2.0749   -2.4801   -1.0793 C   0  0  0  0  0  0
   -2.8343   -1.7339   -1.9804 C   0  0  0  0  0  0
   -2.5804   -0.3703   -2.1710 C   0  0  0  0  0  0
   -1.5595    0.2509   -1.4530 C   0  0  0  0  0  0
   -0.7949   -0.4854   -0.5514 C   0  0  0  0  0  0
   -1.0526   -1.8443   -0.3653 C   0  0  0  0  0  0
   -3.3014    0.3615   -3.0320 F   0  0  0  0  0  0
   -3.8945   -2.4175   -2.7506 C   0  0  0  0  0  0
   -4.5139   -1.7687   -3.5907 O   0  0  0  0  0  0
   -4.0511   -3.7931   -2.4786 N   0  0  0  0  0  0
   -5.0126   -4.5100   -3.2704 C   0  0  0  0  0  0
   -6.3602   -4.1531   -3.2219 C   0  0  0  0  0  0
   -7.2937   -4.8476   -3.9912 C   0  0  0  0  0  0
   -6.8797   -5.8990   -4.8090 C   0  0  0  0  0  0
   -5.5321   -6.2560   -4.8574 C   0  0  0  0  0  0
   -4.5986   -5.5615   -4.0881 C   0  0  0  0  0  0
   -2.3139   -6.5538   -1.4218 N   0  0  0  0  0  0
   -2.2703   -7.8330   -1.7952 C   0  0  0  0  0  0
   -1.1113   -8.4941   -2.0743 C   0  0  0  0  0  0
   -1.1078   -9.9051   -2.4826 C   0  0  0  0  0  0
    0.1130  -10.2980   -2.6883 N   0  5  0  0  0  0
    0.8509   -9.1521   -2.4137 C   0  0  0  0  0  0
    0.1923   -8.0842   -2.0546 N   0  0  0  0  0  0
   -2.2642  -10.6271   -2.6042 N   0  0  0  0  0  0
   -3.3450   -9.9593   -2.3304 C   0  0  0  0  0  0
   -3.4154   -8.6422   -1.9425 N   0  0  0  0  0  0
   -5.4606   -5.3135    1.7170 H   0  0  0  0  0  0
   -6.0438   -5.5983    0.0420 H   0  0  0  0  0  0
   -5.0670   -4.1382    0.4168 H   0  0  0  0  0  0
   -3.1159   -5.5791    0.9457 H   0  0  0  0  0  0
   -4.0926   -7.0393    0.5709 H   0  0  0  0  0  0
   -1.3773    1.2254   -1.5841 H   0  0  0  0  0  0
   -0.0605   -0.0407   -0.0386 H   0  0  0  0  0  0
   -0.4967   -2.3650    0.2827 H   0  0  0  0  0  0
   -6.6939   -3.3346   -2.5891 H   0  0  0  0  0  0
   -8.3430   -4.5699   -3.9542 H   0  0  0  0  0  0
   -7.6066   -6.4401   -5.4075 H   0  0  0  0  0  0
   -5.2102   -7.0745   -5.4945 H   0  0  0  0  0  0
   -3.5509   -5.8481   -4.1350 H   0  0  0  0  0  0
    1.8482   -9.1252   -2.4816 H   0  0  0  0  0  0
   -4.1820  -10.4986   -2.4235 H   0  0  0  0  0  0
   -1.3538   -6.0231   -1.3410 H   0  0  0  0  0  0
  1  2  1  0  0  0
  1 33  1  0  0  0
  1 34  1  0  0  0
  1 35  1  0  0  0
  2  3  1  0  0  0
  2 36  1  0  0  0
  2 37  1  0  0  0
  3  4  1  0  0  0
  3  5  1  0  0  0
  3 23  1  0  0  0
  5 16  1  0  0  0
  5  6  2  0  0  0
  6  7  1  0  0  0
  7 12  2  0  0  0
  7  8  1  0  0  0
  8  9  2  0  0  0
  8 14  1  0  0  0
  9 10  1  0  0  0
  9 13  1  0  0  0
 10 11  2  0  0  0
 10 38  1  0  0  0
 11 12  1  0  0  0
 11 39  1  0  0  0
 12 40  1  0  0  0
 14 15  2  0  0  0
 14 16  1  0  0  0
 16 17  1  0  0  0
 17 22  2  0  0  0
 17 18  1  0  0  0
 18 19  2  0  0  0
 18 41  1  0  0  0
 19 20  1  0  0  0
 19 42  1  0  0  0
 20 21  2  0  0  0
 20 43  1  0  0  0
 21 22  1  0  0  0
 21 44  1  0  0  0
 22 45  1  0  0  0
 23 24  1  0  0  0
 23 48  1  0  0  0
 24 32  1  0  0  0
 24 25  2  0  0  0
 25 29  1  0  0  0
 25 26  1  0  0  0
 26 27  1  0  0  0
 26 30  2  0  0  0
 27 28  1  0  0  0
 28 29  2  0  0  0
 28 46  1  0  0  0
 30 31  1  0  0  0
 31 47  1  0  0  0
 31 32  2  0  0  0
M  CHG  1  27  -1
M  END
> <s_m_source_file>
/Users/andrea/Development/mcce-charges/epik_inhibitors/output/Idelalisib/Idelalisib-input.mol2

> <i_m_source_file_index>
1

> <r_lp_tautomer_probability>
0.999989868072657

> <r_epik_Ionization_Penalty>
  7.0618

> <r_epik_Ionization_Penalty_Charging>
  3.2159

> <r_epik_Ionization_Penalty_Neutral>
  3.8458

> <r_epik_State_Penalty>
  1.2612

> <i_epik_Tot_Q>
-1

$$$$
5-fluoro-3-phenyl-2-[(1~{S})-1-(1~{H}-purin-6-ylamino)propyl]quinazolin-4-one
                    3D
 Structure written by MMmdl.
 49 53  0  0  1  0            999 V2000
   -5.2169   -5.2027    0.6501 C   0  0  0  0  0  0
   -3.9428   -5.9748    0.3377 C   0  0  0  0  0  0
   -3.5419   -5.8663   -1.1298 C   0  0  1  0  0  0
   -4.3470   -6.3383   -1.7121 H   0  0  0  0  0  0
   -3.2683   -4.4253   -1.5094 C   0  0  0  0  0  0
   -2.3187   -3.8375   -0.8483 N   0  0  0  0  0  0
   -2.0749   -2.4801   -1.0793 C   0  0  0  0  0  0
   -2.8343   -1.7339   -1.9804 C   0  0  0  0  0  0
   -2.5804   -0.3703   -2.1710 C   0  0  0  0  0  0
   -1.5595    0.2509   -1.4530 C   0  0  0  0  0  0
   -0.7949   -0.4854   -0.5514 C   0  0  0  0  0  0
   -1.0526   -1.8443   -0.3653 C   0  0  0  0  0  0
   -3.3014    0.3615   -3.0320 F   0  0  0  0  0  0
   -3.8945   -2.4175   -2.7506 C   0  0  0  0  0  0
   -4.5139   -1.7687   -3.5907 O   0  0  0  0  0  0
   -4.0511   -3.7931   -2.4786 N   0  0  0  0  0  0
   -5.0126   -4.5100   -3.2704 C   0  0  0  0  0  0
   -6.3602   -4.1531   -3.2219 C   0  0  0  0  0  0
   -7.2937   -4.8476   -3.9912 C   0  0  0  0  0  0
   -6.8797   -5.8990   -4.8090 C   0  0  0  0  0  0
   -5.5321   -6.2560   -4.8574 C   0  0  0  0  0  0
   -4.5986   -5.5615   -4.0881 C   0  0  0  0  0  0
   -2.3139   -6.5538   -1.4218 N   0  0  0  0  0  0
   -2.2703   -7.8330   -1.7952 C   0  0  0  0  0  0
   -1.1113   -8.4941   -2.0743 C   0  0  0  0  0  0
   -1.1078   -9.9051   -2.4826 C   0  0  0  0  0  0
    0.1130  -10.2980   -2.6883 N   0  0  0  0  0  0
    0.8509   -9.1521   -2.4137 C   0  0  0  0  0  0
    0.1923   -8.0842   -2.0546 N   0  0  0  0  0  0
   -2.2642  -10.6271   -2.6042 N   0  0  0  0  0  0
   -3.3450   -9.9593   -2.3304 C   0  0  0  0  0  0
   -3.4154   -8.6422   -1.9425 N   0  0  0  0  0  0
   -5.4606   -5.3135    1.7170 H   0  0  0  0  0  0
   -6.0438   -5.5983    0.0420 H   0  0  0  0  0  0
   -5.0670   -4.1382    0.4168 H   0  0  0  0  0  0
   -3.1159   -5.5791    0.9457 H   0  0  0  0  0  0
   -4.0926   -7.0393    0.5709 H   0  0  0  0  0  0
   -1.3773    1.2254   -1.5841 H   0  0  0  0  0  0
   -0.0605   -0.0407   -0.0386 H   0  0  0  0  0  0
   -0.4967   -2.3650    0.2827 H   0  0  0  0  0  0
   -6.6939   -3.3346   -2.5891 H   0  0  0  0  0  0
   -8.3430   -4.5699   -3.9542 H   0  0  0  0  0  0
   -7.6066   -6.4401   -5.4075 H   0  0  0  0  0  0
   -5.2102   -7.0745   -5.4945 H   0  0  0  0  0  0
   -3.5509   -5.8481   -4.1350 H   0  0  0  0  0  0
    0.4394   -7.0497   -1.7739 H   0  0  0  0  0  0
    1.8475   -9.1680   -2.4940 H   0  0  0  0  0  0
   -4.1820  -10.4986   -2.4235 H   0  0  0  0  0  0
   -1.3538   -6.0231   -1.3410 H   0  0  0  0  0  0
  1  2  1  0  0  0
  1 33  1  0  0  0
  1 34  1  0  0  0
  1 35  1  0  0  0
  2  3  1  0  0  0
  2 36  1  0  0  0
  2 37  1  0  0  0
  3  4  1  0  0  0
  3  5  1  0  0  0
  3 23  1  0  0  0
  5 16  1  0  0  0
  5  6  2  0  0  0
  6  7  1  0  0  0
  7 12  2  0  0  0
  7  8  1  0  0  0
  8  9  2  0  0  0
  8 14  1  0  0  0
  9 10  1  0  0  0
  9 13  1  0  0  0
 10 11  2  0  0  0
 10 38  1  0  0  0
 11 12  1  0  0  0
 11 39  1  0  0  0
 12 40  1  0  0  0
 14 15  2  0  0  0
 14 16  1  0  0  0
 16 17  1  0  0  0
 17 22  2  0  0  0
 17 18  1  0  0  0
 18 19  2  0  0  0
 18 41  1  0  0  0
 19 20  1  0  0  0
 19 42  1  0  0  0
 20 21  2  0  0  0
 20 43  1  0  0  0
 21 22  1  0  0  0
 21 44  1  0  0  0
 22 45  1  0  0  0
 23 24  1  0  0  0
 23 49  1  0  0  0
 24 32  1  0  0  0
 24 25  2  0  0  0
 25 29  1  0  0  0
 25 26  1  0  0  0
 26 27  1  0  0  0
 26 30  2  0  0  0
 27 28  2  0  0  0
 28 29  1  0  0  0
 28 47  1  0  0  0
 29 46  1  0  0  0
 30 31  1  0  0  0
 31 48  1  0  0  0
 31 32  2  0  0  0
M  END
> <s_m_source_file>
/Users/andrea/Development/mcce-charges/epik_inhibitors/output/Idelalisib/Idelalisib-input.mol2

> <i_m_source_file_index>
1

> <r_lp_tautomer_probability>
0.0419191988452545

> <r_epik_Ionization_Penalty>
  0.0028

> <r_epik_Ionization_Penalty_Charging>
  0.0000

> <r_epik_Ionization_Penalty_Neutral>
  0.0028

> <r_epik_State_Penalty>
  2.0372

> <i_epik_Tot_Q>
0

$$$$
5-fluoro-3-phenyl-2-[(1~{S})-1-(1~{H}-purin-6-ylamino)propyl]quinazolin-4-one
                    3D
 Structure written by MMmdl.
 49 53  0  0  1  0            999 V2000
   -5.2179   -5.1978    0.6415 C   0  0  0  0  0  0
   -3.9437   -5.9704    0.3307 C   0  0  0  0  0  0
   -3.5424   -5.8643   -1.1369 C   0  0  1  0  0  0
   -4.3473   -6.3372   -1.7186 H   0  0  0  0  0  0
   -3.2688   -4.4238   -1.5187 C   0  0  0  0  0  0
   -2.3195   -3.8350   -0.8583 N   0  0  0  0  0  0
   -2.0756   -2.4779   -1.0915 C   0  0  0  0  0  0
   -2.8348   -1.7332   -1.9940 C   0  0  0  0  0  0
   -2.5810   -0.3699   -2.1867 C   0  0  0  0  0  0
   -1.5603    0.2525   -1.4694 C   0  0  0  0  0  0
   -0.7959   -0.4823   -0.5664 C   0  0  0  0  0  0
   -1.0535   -1.8409   -0.3783 C   0  0  0  0  0  0
   -3.3018    0.3605   -3.0490 F   0  0  0  0  0  0
   -3.8948   -2.4181   -2.7633 C   0  0  0  0  0  0
   -4.5140   -1.7707   -3.6046 O   0  0  0  0  0  0
   -4.0514   -3.7933   -2.4891 N   0  0  0  0  0  0
   -5.0127   -4.5114   -3.2800 C   0  0  0  0  0  0
   -6.3603   -4.1545   -3.2324 C   0  0  0  0  0  0
   -7.2936   -4.8504   -4.0009 C   0  0  0  0  0  0
   -6.8793   -5.9031   -4.8168 C   0  0  0  0  0  0
   -5.5317   -6.2601   -4.8643 C   0  0  0  0  0  0
   -4.5984   -5.5643   -4.0959 C   0  0  0  0  0  0
   -2.3144   -6.5522   -1.4274 N   0  0  0  0  0  0
   -2.2706   -7.8319   -1.7988 C   0  0  0  0  0  0
   -1.1114   -8.4938   -2.0754 C   0  0  0  0  0  0
   -1.1078   -9.9051   -2.4826 C   0  0  0  0  0  0
    0.1130  -10.2980   -2.6883 N   0  0  0  0  0  0
    0.8509   -9.1522   -2.4133 C   0  0  0  0  0  0
    0.1922   -8.0840   -2.0554 N   0  0  0  0  0  0
   -2.2641  -10.6274   -2.6033 N   0  0  0  0  0  0
   -3.3450   -9.9595   -2.3297 C   0  0  0  0  0  0
   -3.4156   -8.6415   -1.9451 N   0  0  0  0  0  0
   -5.4618   -5.3070    1.7085 H   0  0  0  0  0  0
   -6.0446   -5.5945    0.0339 H   0  0  0  0  0  0
   -5.0680   -4.1337    0.4066 H   0  0  0  0  0  0
   -3.1170   -5.5737    0.9382 H   0  0  0  0  0  0
   -4.0935   -7.0345    0.5656 H   0  0  0  0  0  0
   -1.3781    1.2268   -1.6021 H   0  0  0  0  0  0
   -0.0616   -0.0367   -0.0542 H   0  0  0  0  0  0
   -0.4978   -2.3605    0.2707 H   0  0  0  0  0  0
   -6.6942   -3.3350   -2.6010 H   0  0  0  0  0  0
   -8.3429   -4.5727   -3.9645 H   0  0  0  0  0  0
   -7.6061   -6.4452   -5.4147 H   0  0  0  0  0  0
   -5.2096   -7.0796   -5.5000 H   0  0  0  0  0  0
   -3.5507   -5.8509   -4.1421 H   0  0  0  0  0  0
   -2.2238  -11.6830   -2.9100 H   0  0  0  0  0  0
    1.8483   -9.1254   -2.4808 H   0  0  0  0  0  0
   -4.1819  -10.4990   -2.4220 H   0  0  0  0  0  0
   -1.3543   -6.0212   -1.3473 H   0  0  0  0  0  0
  1  2  1  0  0  0
  1 33  1  0  0  0
  1 34  1  0  0  0
  1 35  1  0  0  0
  2  3  1  0  0  0
  2 36  1  0  0  0
  2 37  1  0  0  0
  3  4  1  0  0  0
  3  5  1  0  0  0
  3 23  1  0  0  0
  5 16  1  0  0  0
  5  6  2  0  0  0
  6  7  1  0  0  0
  7 12  2  0  0  0
  7  8  1  0  0  0
  8  9  2  0  0  0
  8 14  1  0  0  0
  9 10  1  0  0  0
  9 13  1  0  0  0
 10 11  2  0  0  0
 10 38  1  0  0  0
 11 12  1  0  0  0
 11 39  1  0  0  0
 12 40  1  0  0  0
 14 15  2  0  0  0
 14 16  1  0  0  0
 16 17  1  0  0  0
 17 22  2  0  0  0
 17 18  1  0  0  0
 18 19  2  0  0  0
 18 41  1  0  0  0
 19 20  1  0  0  0
 19 42  1  0  0  0
 20 21  2  0  0  0
 20 43  1  0  0  0
 21 22  1  0  0  0
 21 44  1  0  0  0
 22 45  1  0  0  0
 23 24  1  0  0  0
 23 49  1  0  0  0
 24 32  1  0  0  0
 24 25  2  0  0  0
 25 29  1  0  0  0
 25 26  1  0  0  0
 26 27  2  0  0  0
 26 30  1  0  0  0
 27 28  1  0  0  0
 28 29  2  0  0  0
 28 47  1  0  0  0
 30 31  1  0  0  0
 30 46  1  0  0  0
 31 48  1  0  0  0
 31 32  2  0  0  0
M  END
> <s_m_source_file>
/Users/andrea/Development/mcce-charges/epik_inhibitors/output/Idelalisib/Idelalisib-input.mol2

> <i_m_source_file_index>
1

> <r_lp_tautomer_probability>
0.00222395749598869

> <r_epik_Ionization_Penalty>
  9.6260

> <r_epik_Ionization_Penalty_Charging>
  0.0000

> <r_epik_Ionization_Penalty_Neutral>
  9.6260

> <r_epik_State_Penalty>
  4.3111

> <i_epik_Tot_Q>
0

$$$$
5-fluoro-3-phenyl-2-[(1~{S})-1-(1~{H}-purin-6-ylamino)propyl]quinazolin-4-one
                    3D
 Structure written by MMmdl.
 49 53  0  0  1  0            999 V2000
   -5.2180   -5.1996    0.6441 C   0  0  0  0  0  0
   -3.9438   -5.9721    0.3330 C   0  0  0  0  0  0
   -3.5422   -5.8650   -1.1344 C   0  0  1  0  0  0
   -4.3471   -6.3375   -1.7166 H   0  0  0  0  0  0
   -3.2684   -4.4243   -1.5152 C   0  0  0  0  0  0
   -2.3191   -3.8360   -0.8542 N   0  0  0  0  0  0
   -2.0751   -2.4788   -1.0864 C   0  0  0  0  0  0
   -2.8340   -1.7334   -1.9885 C   0  0  0  0  0  0
   -2.5800   -0.3700   -2.1802 C   0  0  0  0  0  0
   -1.5594    0.2518   -1.4623 C   0  0  0  0  0  0
   -0.7952   -0.4837   -0.5597 C   0  0  0  0  0  0
   -1.0530   -1.8424   -0.3725 C   0  0  0  0  0  0
   -3.3006    0.3611   -3.0422 F   0  0  0  0  0  0
   -3.8939   -2.4176   -2.7585 C   0  0  0  0  0  0
   -4.5129   -1.7696   -3.5995 O   0  0  0  0  0  0
   -4.0507   -3.7930   -2.4853 N   0  0  0  0  0  0
   -5.0119   -4.5105   -3.2769 C   0  0  0  0  0  0
   -6.3595   -4.1535   -3.2293 C   0  0  0  0  0  0
   -7.2927   -4.8487   -3.9984 C   0  0  0  0  0  0
   -6.8784   -5.9009   -4.8150 C   0  0  0  0  0  0
   -5.5308   -6.2580   -4.8625 C   0  0  0  0  0  0
   -4.5976   -5.5628   -4.0934 C   0  0  0  0  0  0
   -2.3142   -6.5528   -1.4252 N   0  0  0  0  0  0
   -2.2705   -7.8323   -1.7974 C   0  0  0  0  0  0
   -1.1114   -8.4938   -2.0754 C   0  0  0  0  0  0
   -1.1078   -9.9051   -2.4826 C   0  0  0  0  0  0
    0.1130  -10.2980   -2.6883 N   0  0  0  0  0  0
    0.8509   -9.1522   -2.4133 C   0  0  0  0  0  0
    0.1922   -8.0840   -2.0554 N   0  0  0  0  0  0
   -2.2642  -10.6271   -2.6042 N   0  0  0  0  0  0
   -3.3450   -9.9593   -2.3304 C   0  0  0  0  0  0
   -3.4156   -8.6416   -1.9447 N   0  0  0  0  0  0
   -5.4621   -5.3095    1.7110 H   0  0  0  0  0  0
   -6.0447   -5.5958    0.0361 H   0  0  0  0  0  0
   -5.0679   -4.1353    0.4100 H   0  0  0  0  0  0
   -3.1171   -5.5759    0.9410 H   0  0  0  0  0  0
   -4.0938   -7.0364    0.5671 H   0  0  0  0  0  0
   -1.3617    1.3100   -1.6059 H   0  0  0  0  0  0
    0.0023   -0.0008   -0.0026 H   0  0  0  0  0  0
   -0.4468   -2.4048    0.3338 H   0  0  0  0  0  0
   -6.6935   -3.3344   -2.5974 H   0  0  0  0  0  0
   -8.3420   -4.5709   -3.9621 H   0  0  0  0  0  0
   -7.6051   -6.4425   -5.4134 H   0  0  0  0  0  0
   -5.2087   -7.0771   -5.4987 H   0  0  0  0  0  0
   -3.5499   -5.8495   -4.1396 H   0  0  0  0  0  0
   -1.3541   -6.0220   -1.3445 H   0  0  0  0  0  0
    1.9481   -9.1667   -2.5001 H   0  0  0  0  0  0
   -4.3338  -10.4397   -2.3949 H   0  0  0  0  0  0
   -4.4138   -8.2231   -1.7486 H   0  0  0  0  0  0
  1  2  1  0  0  0
  1 33  1  0  0  0
  1 34  1  0  0  0
  1 35  1  0  0  0
  2  3  1  0  0  0
  2 36  1  0  0  0
  2 37  1  0  0  0
  3  4  1  0  0  0
  3  5  1  0  0  0
  3 23  1  0  0  0
  5 16  1  0  0  0
  5  6  2  0  0  0
  6  7  1  0  0  0
  7 12  2  0  0  0
  7  8  1  0  0  0
  8  9  2  0  0  0
  8 14  1  0  0  0
  9 10  1  0  0  0
  9 13  1  0  0  0
 10 11  2  0  0  0
 10 38  1  0  0  0
 11 12  1  0  0  0
 11 39  1  0  0  0
 12 40  1  0  0  0
 14 15  2  0  0  0
 14 16  1  0  0  0
 16 17  1  0  0  0
 17 22  2  0  0  0
 17 18  1  0  0  0
 18 19  2  0  0  0
 18 41  1  0  0  0
 19 20  1  0  0  0
 19 42  1  0  0  0
 20 21  2  0  0  0
 20 43  1  0  0  0
 21 22  1  0  0  0
 21 44  1  0  0  0
 22 45  1  0  0  0
 23 24  1  0  0  0
 23 46  1  0  0  0
 24 32  1  0  0  0
 24 25  2  0  0  0
 25 29  1  0  0  0
 25 26  1  0  0  0
 26 27  2  0  0  0
 26 30  1  0  0  0
 27 28  1  0  0  0
 28 29  2  0  0  0
 28 47  1  0  0  0
 30 31  2  0  0  0
 31 32  1  0  0  0
 31 48  1  0  0  0
 32 49  1  0  0  0
M  END
> <s_m_source_file>
/Users/andrea/Development/mcce-charges/epik_inhibitors/output/Idelalisib/Idelalisib-input.mol2

> <i_m_source_file_index>
1

> <r_lp_tautomer_probability>
0.000271894803578834

> <r_epik_Ionization_Penalty>
  2.1466

> <r_epik_Ionization_Penalty_Charging>
  0.0000

> <r_epik_Ionization_Penalty_Neutral>
  2.1466

> <r_epik_State_Penalty>
  5.2473

> <i_epik_Tot_Q>
0

$$$$
5-fluoro-3-phenyl-2-[(1~{S})-1-(1~{H}-purin-6-ylamino)propyl]quinazolin-4-one
                    3D
 Structure written by MMmdl.
 50 54  0  0  1  0            999 V2000
   -5.2169   -5.2027    0.6501 C   0  0  0  0  0  0
   -3.9428   -5.9748    0.3377 C   0  0  0  0  0  0
   -3.5419   -5.8663   -1.1298 C   0  0  1  0  0  0
   -4.3470   -6.3383   -1.7121 H   0  0  0  0  0  0
   -3.2683   -4.4253   -1.5094 C   0  0  0  0  0  0
   -2.3187   -3.8375   -0.8483 N   0  0  0  0  0  0
   -2.0749   -2.4801   -1.0793 C   0  0  0  0  0  0
   -2.8343   -1.7339   -1.9804 C   0  0  0  0  0  0
   -2.5804   -0.3703   -2.1710 C   0  0  0  0  0  0
   -1.5595    0.2509   -1.4530 C   0  0  0  0  0  0
   -0.7949   -0.4854   -0.5514 C   0  0  0  0  0  0
   -1.0526   -1.8443   -0.3653 C   0  0  0  0  0  0
   -3.3014    0.3615   -3.0320 F   0  0  0  0  0  0
   -3.8945   -2.4175   -2.7506 C   0  0  0  0  0  0
   -4.5139   -1.7687   -3.5907 O   0  0  0  0  0  0
   -4.0511   -3.7931   -2.4786 N   0  0  0  0  0  0
   -5.0126   -4.5100   -3.2704 C   0  0  0  0  0  0
   -6.3602   -4.1531   -3.2219 C   0  0  0  0  0  0
   -7.2937   -4.8476   -3.9912 C   0  0  0  0  0  0
   -6.8797   -5.8990   -4.8090 C   0  0  0  0  0  0
   -5.5321   -6.2560   -4.8574 C   0  0  0  0  0  0
   -4.5986   -5.5615   -4.0881 C   0  0  0  0  0  0
   -2.3139   -6.5538   -1.4218 N   0  0  0  0  0  0
   -2.2703   -7.8330   -1.7952 C   0  0  0  0  0  0
   -1.1113   -8.4941   -2.0743 C   0  0  0  0  0  0
   -1.1078   -9.9051   -2.4826 C   0  0  0  0  0  0
    0.1130  -10.2980   -2.6883 N   0  0  0  0  0  0
    0.8509   -9.1521   -2.4137 C   0  0  0  0  0  0
    0.1923   -8.0842   -2.0546 N   0  0  0  0  0  0
   -2.2642  -10.6271   -2.6042 N   0  0  0  0  0  0
   -3.3450   -9.9593   -2.3304 C   0  0  0  0  0  0
   -3.4154   -8.6422   -1.9425 N   0  3  0  0  0  0
   -5.4606   -5.3135    1.7170 H   0  0  0  0  0  0
   -6.0438   -5.5983    0.0420 H   0  0  0  0  0  0
   -5.0670   -4.1382    0.4168 H   0  0  0  0  0  0
   -3.1159   -5.5791    0.9457 H   0  0  0  0  0  0
   -4.0926   -7.0393    0.5709 H   0  0  0  0  0  0
   -1.3773    1.2254   -1.5841 H   0  0  0  0  0  0
   -0.0605   -0.0407   -0.0386 H   0  0  0  0  0  0
   -0.4967   -2.3650    0.2827 H   0  0  0  0  0  0
   -6.6939   -3.3346   -2.5891 H   0  0  0  0  0  0
   -8.3430   -4.5699   -3.9542 H   0  0  0  0  0  0
   -7.6066   -6.4401   -5.4075 H   0  0  0  0  0  0
   -5.2102   -7.0745   -5.4945 H   0  0  0  0  0  0
   -3.5509   -5.8481   -4.1350 H   0  0  0  0  0  0
    0.6255  -11.2222   -2.9936 H   0  0  0  0  0  0
    1.8482   -9.1252   -2.4816 H   0  0  0  0  0  0
   -4.1820  -10.4986   -2.4235 H   0  0  0  0  0  0
   -1.3538   -6.0231   -1.3410 H   0  0  0  0  0  0
   -4.3924   -8.1818   -1.7341 H   0  0  0  0  0  0
  1  2  1  0  0  0
  1 33  1  0  0  0
  1 34  1  0  0  0
  1 35  1  0  0  0
  2  3  1  0  0  0
  2 36  1  0  0  0
  2 37  1  0  0  0
  3  4  1  0  0  0
  3  5  1  0  0  0
  3 23  1  0  0  0
  5 16  1  0  0  0
  5  6  2  0  0  0
  6  7  1  0  0  0
  7 12  2  0  0  0
  7  8  1  0  0  0
  8  9  2  0  0  0
  8 14  1  0  0  0
  9 10  1  0  0  0
  9 13  1  0  0  0
 10 11  2  0  0  0
 10 38  1  0  0  0
 11 12  1  0  0  0
 11 39  1  0  0  0
 12 40  1  0  0  0
 14 15  2  0  0  0
 14 16  1  0  0  0
 16 17  1  0  0  0
 17 22  2  0  0  0
 17 18  1  0  0  0
 18 19  2  0  0  0
 18 41  1  0  0  0
 19 20  1  0  0  0
 19 42  1  0  0  0
 20 21  2  0  0  0
 20 43  1  0  0  0
 21 22  1  0  0  0
 21 44  1  0  0  0
 22 45  1  0  0  0
 23 24  1  0  0  0
 23 49  1  0  0  0
 24 32  1  0  0  0
 24 25  2  0  0  0
 25 29  1  0  0  0
 25 26  1  0  0  0
 26 27  1  0  0  0
 26 30  2  0  0  0
 27 28  1  0  0  0
 27 46  1  0  0  0
 28 29  2  0  0  0
 28 47  1  0  0  0
 30 31  1  0  0  0
 31 48  1  0  0  0
 31 32  2  0  0  0
 32 50  1  0  0  0
M  CHG  1  32   1
M  END
> <s_m_source_file>
/Users/andrea/Development/mcce-charges/epik_inhibitors/output/Idelalisib/Idelalisib-input.mol2

> <i_m_source_file_index>
1

> <r_lp_tautomer_probability>
0.859734376263432

> <r_epik_Ionization_Penalty>
  6.9278

> <r_epik_Ionization_Penalty_Charging>
  4.4562

> <r_epik_Ionization_Penalty_Neutral>
  2.4715

> <r_epik_State_Penalty>
  5.9495

> <i_epik_Tot_Q>
1

$$$$
5-fluoro-3-phenyl-2-[(1~{S})-1-(1~{H}-purin-6-ylamino)propyl]quinazolin-4-one
                    3D
 Structure written by MMmdl.
 50 54  0  0  1  0            999 V2000
   -5.2169   -5.2027    0.6501 C   0  0  0  0  0  0
   -3.9428   -5.9748    0.3377 C   0  0  0  0  0  0
   -3.5419   -5.8663   -1.1298 C   0  0  1  0  0  0
   -4.3470   -6.3383   -1.7121 H   0  0  0  0  0  0
   -3.2683   -4.4253   -1.5094 C   0  0  0  0  0  0
   -2.3187   -3.8375   -0.8483 N   0  0  0  0  0  0
   -2.0749   -2.4801   -1.0793 C   0  0  0  0  0  0
   -2.8343   -1.7339   -1.9804 C   0  0  0  0  0  0
   -2.5804   -0.3703   -2.1710 C   0  0  0  0  0  0
   -1.5595    0.2509   -1.4530 C   0  0  0  0  0  0
   -0.7949   -0.4854   -0.5514 C   0  0  0  0  0  0
   -1.0526   -1.8443   -0.3653 C   0  0  0  0  0  0
   -3.3014    0.3615   -3.0320 F   0  0  0  0  0  0
   -3.8945   -2.4175   -2.7506 C   0  0  0  0  0  0
   -4.5139   -1.7687   -3.5907 O   0  0  0  0  0  0
   -4.0511   -3.7931   -2.4786 N   0  0  0  0  0  0
   -5.0126   -4.5100   -3.2704 C   0  0  0  0  0  0
   -6.3602   -4.1531   -3.2219 C   0  0  0  0  0  0
   -7.2937   -4.8476   -3.9912 C   0  0  0  0  0  0
   -6.8797   -5.8990   -4.8090 C   0  0  0  0  0  0
   -5.5321   -6.2560   -4.8574 C   0  0  0  0  0  0
   -4.5986   -5.5615   -4.0881 C   0  0  0  0  0  0
   -2.3139   -6.5538   -1.4218 N   0  0  0  0  0  0
   -2.2703   -7.8330   -1.7952 C   0  0  0  0  0  0
   -1.1113   -8.4941   -2.0743 C   0  0  0  0  0  0
   -1.1078   -9.9051   -2.4826 C   0  0  0  0  0  0
    0.1130  -10.2980   -2.6883 N   0  0  0  0  0  0
    0.8509   -9.1521   -2.4137 C   0  0  0  0  0  0
    0.1923   -8.0842   -2.0546 N   0  3  0  0  0  0
   -2.2642  -10.6271   -2.6042 N   0  0  0  0  0  0
   -3.3450   -9.9593   -2.3304 C   0  0  0  0  0  0
   -3.4154   -8.6422   -1.9425 N   0  0  0  0  0  0
   -5.4606   -5.3135    1.7170 H   0  0  0  0  0  0
   -6.0438   -5.5983    0.0420 H   0  0  0  0  0  0
   -5.0670   -4.1382    0.4168 H   0  0  0  0  0  0
   -3.1159   -5.5791    0.9457 H   0  0  0  0  0  0
   -4.0926   -7.0393    0.5709 H   0  0  0  0  0  0
   -1.3773    1.2254   -1.5841 H   0  0  0  0  0  0
   -0.0605   -0.0407   -0.0386 H   0  0  0  0  0  0
   -0.4967   -2.3650    0.2827 H   0  0  0  0  0  0
   -6.6939   -3.3346   -2.5891 H   0  0  0  0  0  0
   -8.3430   -4.5699   -3.9542 H   0  0  0  0  0  0
   -7.6066   -6.4401   -5.4075 H   0  0  0  0  0  0
   -5.2102   -7.0745   -5.4945 H   0  0  0  0  0  0
   -3.5509   -5.8481   -4.1350 H   0  0  0  0  0  0
    0.6255  -11.2222   -2.9936 H   0  0  0  0  0  0
    1.8482   -9.1252   -2.4816 H   0  0  0  0  0  0
   -4.1820  -10.4986   -2.4235 H   0  0  0  0  0  0
   -1.3538   -6.0231   -1.3410 H   0  0  0  0  0  0
    0.4394   -7.0497   -1.7739 H   0  0  0  0  0  0
  1  2  1  0  0  0
  1 33  1  0  0  0
  1 34  1  0  0  0
  1 35  1  0  0  0
  2  3  1  0  0  0
  2 36  1  0  0  0
  2 37  1  0  0  0
  3  4  1  0  0  0
  3  5  1  0  0  0
  3 23  1  0  0  0
  5 16  1  0  0  0
  5  6  2  0  0  0
  6  7  1  0  0  0
  7 12  2  0  0  0
  7  8  1  0  0  0
  8  9  2  0  0  0
  8 14  1  0  0  0
  9 10  1  0  0  0
  9 13  1  0  0  0
 10 11  2  0  0  0
 10 38  1  0  0  0
 11 12  1  0  0  0
 11 39  1  0  0  0
 12 40  1  0  0  0
 14 15  2  0  0  0
 14 16  1  0  0  0
 16 17  1  0  0  0
 17 22  2  0  0  0
 17 18  1  0  0  0
 18 19  2  0  0  0
 18 41  1  0  0  0
 19 20  1  0  0  0
 19 42  1  0  0  0
 20 21  2  0  0  0
 20 43  1  0  0  0
 21 22  1  0  0  0
 21 44  1  0  0  0
 22 45  1  0  0  0
 23 24  1  0  0  0
 23 49  1  0  0  0
 24 32  1  0  0  0
 24 25  2  0  0  0
 25 29  1  0  0  0
 25 26  1  0  0  0
 26 27  1  0  0  0
 26 30  2  0  0  0
 27 28  1  0  0  0
 27 46  1  0  0  0
 28 29  2  0  0  0
 28 47  1  0  0  0
 29 50  1  0  0  0
 30 31  1  0  0  0
 31 48  1  0  0  0
 31 32  2  0  0  0
M  CHG  1  29   1
M  END
> <s_m_source_file>
/Users/andrea/Development/mcce-charges/epik_inhibitors/output/Idelalisib/Idelalisib-input.mol2

> <i_m_source_file_index>
1

> <r_epik_Ionization_Penalty>
 10.0307

> <r_epik_Ionization_Penalty_Charging>
  5.9333

> <r_epik_Ionization_Penalty_Neutral>
  4.0974

> <r_epik_State_Penalty>
  6.3996

> <i_epik_Tot_Q>
1

$$$$
5-fluoro-3-phenyl-2-[(1~{S})-1-(1~{H}-purin-6-ylamino)propyl]quinazolin-4-one
                    3D
 Structure written by MMmdl.
 50 54  0  0  1  0            999 V2000
   -5.2169   -5.2027    0.6501 C   0  0  0  0  0  0
   -3.9428   -5.9748    0.3377 C   0  0  0  0  0  0
   -3.5419   -5.8663   -1.1298 C   0  0  1  0  0  0
   -4.3470   -6.3383   -1.7121 H   0  0  0  0  0  0
   -3.2683   -4.4253   -1.5094 C   0  0  0  0  0  0
   -2.3187   -3.8375   -0.8483 N   0  0  0  0  0  0
   -2.0749   -2.4801   -1.0793 C   0  0  0  0  0  0
   -2.8343   -1.7339   -1.9804 C   0  0  0  0  0  0
   -2.5804   -0.3703   -2.1710 C   0  0  0  0  0  0
   -1.5595    0.2509   -1.4530 C   0  0  0  0  0  0
   -0.7949   -0.4854   -0.5514 C   0  0  0  0  0  0
   -1.0526   -1.8443   -0.3653 C   0  0  0  0  0  0
   -3.3014    0.3615   -3.0320 F   0  0  0  0  0  0
   -3.8945   -2.4175   -2.7506 C   0  0  0  0  0  0
   -4.5139   -1.7687   -3.5907 O   0  0  0  0  0  0
   -4.0511   -3.7931   -2.4786 N   0  3  0  0  0  0
   -5.0126   -4.5100   -3.2704 C   0  0  0  0  0  0
   -6.3602   -4.1531   -3.2219 C   0  0  0  0  0  0
   -7.2937   -4.8476   -3.9912 C   0  0  0  0  0  0
   -6.8797   -5.8990   -4.8090 C   0  0  0  0  0  0
   -5.5321   -6.2560   -4.8574 C   0  0  0  0  0  0
   -4.5986   -5.5615   -4.0881 C   0  0  0  0  0  0
   -2.3139   -6.5538   -1.4218 N   0  0  0  0  0  0
   -2.2703   -7.8330   -1.7952 C   0  0  0  0  0  0
   -1.1113   -8.4941   -2.0743 C   0  0  0  0  0  0
   -1.1078   -9.9051   -2.4826 C   0  0  0  0  0  0
    0.1130  -10.2980   -2.6883 N   0  0  0  0  0  0
    0.8509   -9.1521   -2.4137 C   0  0  0  0  0  0
    0.1923   -8.0842   -2.0546 N   0  0  0  0  0  0
   -2.2642  -10.6271   -2.6042 N   0  0  0  0  0  0
   -3.3450   -9.9593   -2.3304 C   0  0  0  0  0  0
   -3.4154   -8.6422   -1.9425 N   0  0  0  0  0  0
   -5.4606   -5.3135    1.7170 H   0  0  0  0  0  0
   -6.0438   -5.5983    0.0420 H   0  0  0  0  0  0
   -5.0670   -4.1382    0.4168 H   0  0  0  0  0  0
   -3.1159   -5.5791    0.9457 H   0  0  0  0  0  0
   -4.0926   -7.0393    0.5709 H   0  0  0  0  0  0
   -1.3773    1.2254   -1.5841 H   0  0  0  0  0  0
   -0.0605   -0.0407   -0.0386 H   0  0  0  0  0  0
   -0.4967   -2.3650    0.2827 H   0  0  0  0  0  0
   -6.6939   -3.3346   -2.5891 H   0  0  0  0  0  0
   -8.3430   -4.5699   -3.9542 H   0  0  0  0  0  0
   -7.6066   -6.4401   -5.4075 H   0  0  0  0  0  0
   -5.2102   -7.0745   -5.4945 H   0  0  0  0  0  0
   -3.5509   -5.8481   -4.1350 H   0  0  0  0  0  0
    0.6255  -11.2222   -2.9936 H   0  0  0  0  0  0
    1.8482   -9.1252   -2.4816 H   0  0  0  0  0  0
   -4.1820  -10.4986   -2.4235 H   0  0  0  0  0  0
   -1.3538   -6.0231   -1.3410 H   0  0  0  0  0  0
   -1.7215   -4.4065   -0.1206 H   0  0  0  0  0  0
  1  2  1  0  0  0
  1 33  1  0  0  0
  1 34  1  0  0  0
  1 35  1  0  0  0
  2  3  1  0  0  0
  2 36  1  0  0  0
  2 37  1  0  0  0
  3  4  1  0  0  0
  3  5  1  0  0  0
  3 23  1  0  0  0
  5 16  2  0  0  0
  5  6  1  0  0  0
  6  7  1  0  0  0
  6 50  1  0  0  0
  7 12  2  0  0  0
  7  8  1  0  0  0
  8  9  2  0  0  0
  8 14  1  0  0  0
  9 10  1  0  0  0
  9 13  1  0  0  0
 10 11  2  0  0  0
 10 38  1  0  0  0
 11 12  1  0  0  0
 11 39  1  0  0  0
 12 40  1  0  0  0
 14 15  2  0  0  0
 14 16  1  0  0  0
 16 17  1  0  0  0
 17 22  2  0  0  0
 17 18  1  0  0  0
 18 19  2  0  0  0
 18 41  1  0  0  0
 19 20  1  0  0  0
 19 42  1  0  0  0
 20 21  2  0  0  0
 20 43  1  0  0  0
 21 22  1  0  0  0
 21 44  1  0  0  0
 22 45  1  0  0  0
 23 24  1  0  0  0
 23 49  1  0  0  0
 24 32  1  0  0  0
 24 25  2  0  0  0
 25 29  1  0  0  0
 25 26  1  0  0  0
 26 27  1  0  0  0
 26 30  2  0  0  0
 27 28  1  0  0  0
 27 46  1  0  0  0
 28 29  2  0  0  0
 28 47  1  0  0  0
 30 31  1  0  0  0
 31 48  1  0  0  0
 31 32  2  0  0  0
M  CHG  1  16   1
M  END
> <s_m_source_file>
/Users/andrea/Development/mcce-charges/epik_inhibitors/output/Idelalisib/Idelalisib-input.mol2

> <i_m_source_file_index>
1

> <r_epik_Ionization_Penalty>
  6.6722

> <r_epik_Ionization_Penalty_Charging>
  6.6693

> <r_epik_Ionization_Penalty_Neutral>
  0.0030

> <r_epik_State_Penalty>
  7.2047

> <i_epik_Tot_Q>
1

$$$$
5-fluoro-3-phenyl-2-[(1~{S})-1-(1~{H}-purin-6-ylamino)propyl]quinazolin-4-one
                    3D
 Structure written by MMmdl.
 50 54  0  0  1  0            999 V2000
   -5.2169   -5.2027    0.6501 C   0  0  0  0  0  0
   -3.9428   -5.9748    0.3377 C   0  0  0  0  0  0
   -3.5419   -5.8663   -1.1298 C   0  0  1  0  0  0
   -4.3470   -6.3383   -1.7121 H   0  0  0  0  0  0
   -3.2683   -4.4253   -1.5094 C   0  0  0  0  0  0
   -2.3187   -3.8375   -0.8483 N   0  0  0  0  0  0
   -2.0749   -2.4801   -1.0793 C   0  0  0  0  0  0
   -2.8343   -1.7339   -1.9804 C   0  0  0  0  0  0
   -2.5804   -0.3703   -2.1710 C   0  0  0  0  0  0
   -1.5595    0.2509   -1.4530 C   0  0  0  0  0  0
   -0.7949   -0.4854   -0.5514 C   0  0  0  0  0  0
   -1.0526   -1.8443   -0.3653 C   0  0  0  0  0  0
   -3.3014    0.3615   -3.0320 F   0  0  0  0  0  0
   -3.8945   -2.4175   -2.7506 C   0  0  0  0  0  0
   -4.5139   -1.7687   -3.5907 O   0  0  0  0  0  0
   -4.0511   -3.7931   -2.4786 N   0  0  0  0  0  0
   -5.0126   -4.5100   -3.2704 C   0  0  0  0  0  0
   -6.3602   -4.1531   -3.2219 C   0  0  0  0  0  0
   -7.2937   -4.8476   -3.9912 C   0  0  0  0  0  0
   -6.8797   -5.8990   -4.8090 C   0  0  0  0  0  0
   -5.5321   -6.2560   -4.8574 C   0  0  0  0  0  0
   -4.5986   -5.5615   -4.0881 C   0  0  0  0  0  0
   -2.3139   -6.5538   -1.4218 N   0  0  0  0  0  0
   -2.2703   -7.8330   -1.7952 C   0  0  0  0  0  0
   -1.1113   -8.4941   -2.0743 C   0  0  0  0  0  0
   -1.1078   -9.9051   -2.4826 C   0  0  0  0  0  0
    0.1130  -10.2980   -2.6883 N   0  0  0  0  0  0
    0.8509   -9.1521   -2.4137 C   0  0  0  0  0  0
    0.1923   -8.0842   -2.0546 N   0  0  0  0  0  0
   -2.2642  -10.6271   -2.6042 N   0  3  0  0  0  0
   -3.3450   -9.9593   -2.3304 C   0  0  0  0  0  0
   -3.4154   -8.6422   -1.9425 N   0  0  0  0  0  0
   -5.4606   -5.3135    1.7170 H   0  0  0  0  0  0
   -6.0438   -5.5983    0.0420 H   0  0  0  0  0  0
   -5.0670   -4.1382    0.4168 H   0  0  0  0  0  0
   -3.1159   -5.5791    0.9457 H   0  0  0  0  0  0
   -4.0926   -7.0393    0.5709 H   0  0  0  0  0  0
   -1.3773    1.2254   -1.5841 H   0  0  0  0  0  0
   -0.0605   -0.0407   -0.0386 H   0  0  0  0  0  0
   -0.4967   -2.3650    0.2827 H   0  0  0  0  0  0
   -6.6939   -3.3346   -2.5891 H   0  0  0  0  0  0
   -8.3430   -4.5699   -3.9542 H   0  0  0  0  0  0
   -7.6066   -6.4401   -5.4075 H   0  0  0  0  0  0
   -5.2102   -7.0745   -5.4945 H   0  0  0  0  0  0
   -3.5509   -5.8481   -4.1350 H   0  0  0  0  0  0
    0.4394   -7.0497   -1.7739 H   0  0  0  0  0  0
    1.8475   -9.1680   -2.4940 H   0  0  0  0  0  0
   -4.1820  -10.4986   -2.4235 H   0  0  0  0  0  0
   -1.3538   -6.0231   -1.3410 H   0  0  0  0  0  0
   -2.2239  -11.6825   -2.9117 H   0  0  0  0  0  0
  1  2  1  0  0  0
  1 33  1  0  0  0
  1 34  1  0  0  0
  1 35  1  0  0  0
  2  3  1  0  0  0
  2 36  1  0  0  0
  2 37  1  0  0  0
  3  4  1  0  0  0
  3  5  1  0  0  0
  3 23  1  0  0  0
  5 16  1  0  0  0
  5  6  2  0  0  0
  6  7  1  0  0  0
  7 12  2  0  0  0
  7  8  1  0  0  0
  8  9  2  0  0  0
  8 14  1  0  0  0
  9 10  1  0  0  0
  9 13  1  0  0  0
 10 11  2  0  0  0
 10 38  1  0  0  0
 11 12  1  0  0  0
 11 39  1  0  0  0
 12 40  1  0  0  0
 14 15  2  0  0  0
 14 16  1  0  0  0
 16 17  1  0  0  0
 17 22  2  0  0  0
 17 18  1  0  0  0
 18 19  2  0  0  0
 18 41  1  0  0  0
 19 20  1  0  0  0
 19 42  1  0  0  0
 20 21  2  0  0  0
 20 43  1  0  0  0
 21 22  1  0  0  0
 21 44  1  0  0  0
 22 45  1  0  0  0
 23 24  1  0  0  0
 23 49  1  0  0  0
 24 32  1  0  0  0
 24 25  2  0  0  0
 25 29  1  0  0  0
 25 26  1  0  0  0
 26 27  1  0  0  0
 26 30  2  0  0  0
 27 28  2  0  0  0
 28 29  1  0  0  0
 28 47  1  0  0  0
 29 46  1  0  0  0
 30 31  1  0  0  0
 30 50  1  0  0  0
 31 48  1  0  0  0
 31 32  2  0  0  0
M  CHG  1  30   1
M  END
> <s_m_source_file>
/Users/andrea/Development/mcce-charges/epik_inhibitors/output/Idelalisib/Idelalisib-input.mol2

> <i_m_source_file_index>
1

> <r_lp_tautomer_probability>
0.107604302531052

> <r_epik_Ionization_Penalty>
  4.4257

> <r_epik_Ionization_Penalty_Charging>
  4.4231

> <r_epik_Ionization_Penalty_Neutral>
  0.0025

> <r_epik_State_Penalty>
  7.4234

> <i_epik_Tot_Q>
1

$$$$
5-fluoro-3-phenyl-2-[(1~{S})-1-(1~{H}-purin-6-ylamino)propyl]quinazolin-4-one
                    3D
 Structure written by MMmdl.
 50 54  0  0  1  0            999 V2000
   -5.2169   -5.2027    0.6501 C   0  0  0  0  0  0
   -3.9428   -5.9748    0.3377 C   0  0  0  0  0  0
   -3.5419   -5.8663   -1.1298 C   0  0  1  0  0  0
   -4.3470   -6.3383   -1.7121 H   0  0  0  0  0  0
   -3.2683   -4.4253   -1.5094 C   0  0  0  0  0  0
   -2.3187   -3.8375   -0.8483 N   0  0  0  0  0  0
   -2.0749   -2.4801   -1.0793 C   0  0  0  0  0  0
   -2.8343   -1.7339   -1.9804 C   0  0  0  0  0  0
   -2.5804   -0.3703   -2.1710 C   0  0  0  0  0  0
   -1.5595    0.2509   -1.4530 C   0  0  0  0  0  0
   -0.7949   -0.4854   -0.5514 C   0  0  0  0  0  0
   -1.0526   -1.8443   -0.3653 C   0  0  0  0  0  0
   -3.3014    0.3615   -3.0320 F   0  0  0  0  0  0
   -3.8945   -2.4175   -2.7506 C   0  0  0  0  0  0
   -4.5139   -1.7687   -3.5907 O   0  0  0  0  0  0
   -4.0511   -3.7931   -2.4786 N   0  3  0  0  0  0
   -5.0126   -4.5100   -3.2704 C   0  0  0  0  0  0
   -6.3602   -4.1531   -3.2219 C   0  0  0  0  0  0
   -7.2937   -4.8476   -3.9912 C   0  0  0  0  0  0
   -6.8797   -5.8990   -4.8090 C   0  0  0  0  0  0
   -5.5321   -6.2560   -4.8574 C   0  0  0  0  0  0
   -4.5986   -5.5615   -4.0881 C   0  0  0  0  0  0
   -2.3139   -6.5538   -1.4218 N   0  0  0  0  0  0
   -2.2703   -7.8330   -1.7952 C   0  0  0  0  0  0
   -1.1113   -8.4941   -2.0743 C   0  0  0  0  0  0
   -1.1078   -9.9051   -2.4826 C   0  0  0  0  0  0
    0.1130  -10.2980   -2.6883 N   0  0  0  0  0  0
    0.8509   -9.1521   -2.4137 C   0  0  0  0  0  0
    0.1923   -8.0842   -2.0546 N   0  0  0  0  0  0
   -2.2642  -10.6271   -2.6042 N   0  0  0  0  0  0
   -3.3450   -9.9593   -2.3304 C   0  0  0  0  0  0
   -3.4154   -8.6422   -1.9425 N   0  0  0  0  0  0
   -5.4606   -5.3135    1.7170 H   0  0  0  0  0  0
   -6.0438   -5.5983    0.0420 H   0  0  0  0  0  0
   -5.0670   -4.1382    0.4168 H   0  0  0  0  0  0
   -3.1159   -5.5791    0.9457 H   0  0  0  0  0  0
   -4.0926   -7.0393    0.5709 H   0  0  0  0  0  0
   -1.3773    1.2254   -1.5841 H   0  0  0  0  0  0
   -0.0605   -0.0407   -0.0386 H   0  0  0  0  0  0
   -0.4967   -2.3650    0.2827 H   0  0  0  0  0  0
   -6.6939   -3.3346   -2.5891 H   0  0  0  0  0  0
   -8.3430   -4.5699   -3.9542 H   0  0  0  0  0  0
   -7.6066   -6.4401   -5.4075 H   0  0  0  0  0  0
   -5.2102   -7.0745   -5.4945 H   0  0  0  0  0  0
   -3.5509   -5.8481   -4.1350 H   0  0  0  0  0  0
    0.4394   -7.0497   -1.7739 H   0  0  0  0  0  0
    1.8475   -9.1680   -2.4940 H   0  0  0  0  0  0
   -4.1820  -10.4986   -2.4235 H   0  0  0  0  0  0
   -1.3538   -6.0231   -1.3410 H   0  0  0  0  0  0
   -1.7215   -4.4065   -0.1206 H   0  0  0  0  0  0
  1  2  1  0  0  0
  1 33  1  0  0  0
  1 34  1  0  0  0
  1 35  1  0  0  0
  2  3  1  0  0  0
  2 36  1  0  0  0
  2 37  1  0  0  0
  3  4  1  0  0  0
  3  5  1  0  0  0
  3 23  1  0  0  0
  5 16  2  0  0  0
  5  6  1  0  0  0
  6  7  1  0  0  0
  6 50  1  0  0  0
  7 12  2  0  0  0
  7  8  1  0  0  0
  8  9  2  0  0  0
  8 14  1  0  0  0
  9 10  1  0  0  0
  9 13  1  0  0  0
 10 11  2  0  0  0
 10 38  1  0  0  0
 11 12  1  0  0  0
 11 39  1  0  0  0
 12 40  1  0  0  0
 14 15  2  0  0  0
 14 16  1  0  0  0
 16 17  1  0  0  0
 17 22  2  0  0  0
 17 18  1  0  0  0
 18 19  2  0  0  0
 18 41  1  0  0  0
 19 20  1  0  0  0
 19 42  1  0  0  0
 20 21  2  0  0  0
 20 43  1  0  0  0
 21 22  1  0  0  0
 21 44  1  0  0  0
 22 45  1  0  0  0
 23 24  1  0  0  0
 23 49  1  0  0  0
 24 32  1  0  0  0
 24 25  2  0  0  0
 25 29  1  0  0  0
 25 26  1  0  0  0
 26 27  1  0  0  0
 26 30  2  0  0  0
 27 28  2  0  0  0
 28 29  1  0  0  0
 28 47  1  0  0  0
 29 46  1  0  0  0
 30 31  1  0  0  0
 31 48  1  0  0  0
 31 32  2  0  0  0
M  CHG  1  16   1
M  END
> <s_m_source_file>
/Users/andrea/Development/mcce-charges/epik_inhibitors/output/Idelalisib/Idelalisib-input.mol2

> <i_m_source_file_index>
1

> <r_epik_Ionization_Penalty>
  6.6721

> <r_epik_Ionization_Penalty_Charging>
  6.6693

> <r_epik_Ionization_Penalty_Neutral>
  0.0028

> <r_epik_State_Penalty>
  7.8720

> <i_epik_Tot_Q>
1

$$$$
5-fluoro-3-phenyl-2-[(1~{S})-1-(1~{H}-purin-6-ylamino)propyl]quinazolin-4-one
                    3D
 Structure written by MMmdl.
 48 52  0  0  1  0            999 V2000
   -5.2180   -5.1996    0.6441 C   0  0  0  0  0  0
   -3.9438   -5.9721    0.3330 C   0  0  0  0  0  0
   -3.5422   -5.8650   -1.1344 C   0  0  1  0  0  0
   -4.3471   -6.3375   -1.7166 H   0  0  0  0  0  0
   -3.2684   -4.4243   -1.5152 C   0  0  0  0  0  0
   -2.3191   -3.8360   -0.8542 N   0  0  0  0  0  0
   -2.0751   -2.4788   -1.0864 C   0  0  0  0  0  0
   -2.8340   -1.7334   -1.9885 C   0  0  0  0  0  0
   -2.5800   -0.3700   -2.1802 C   0  0  0  0  0  0
   -1.5594    0.2518   -1.4623 C   0  0  0  0  0  0
   -0.7952   -0.4837   -0.5597 C   0  0  0  0  0  0
   -1.0530   -1.8424   -0.3725 C   0  0  0  0  0  0
   -3.3006    0.3611   -3.0422 F   0  0  0  0  0  0
   -3.8939   -2.4176   -2.7585 C   0  0  0  0  0  0
   -4.5129   -1.7696   -3.5995 O   0  0  0  0  0  0
   -4.0507   -3.7930   -2.4853 N   0  0  0  0  0  0
   -5.0119   -4.5105   -3.2769 C   0  0  0  0  0  0
   -6.3595   -4.1535   -3.2293 C   0  0  0  0  0  0
   -7.2927   -4.8487   -3.9984 C   0  0  0  0  0  0
   -6.8784   -5.9009   -4.8150 C   0  0  0  0  0  0
   -5.5308   -6.2580   -4.8625 C   0  0  0  0  0  0
   -4.5976   -5.5628   -4.0934 C   0  0  0  0  0  0
   -2.3142   -6.5528   -1.4252 N   0  0  0  0  0  0
   -2.2705   -7.8323   -1.7974 C   0  0  0  0  0  0
   -1.1114   -8.4938   -2.0752 C   0  0  0  0  0  0
   -1.1078   -9.9051   -2.4824 C   0  0  0  0  0  0
    0.1130  -10.2981   -2.6880 N   0  5  0  0  0  0
    0.8509   -9.1523   -2.4128 C   0  0  0  0  0  0
    0.1922   -8.0841   -2.0550 N   0  0  0  0  0  0
   -2.2641  -10.6274   -2.6033 N   0  0  0  0  0  0
   -3.3449   -9.9597   -2.3289 C   0  0  0  0  0  0
   -3.4155   -8.6421   -1.9429 N   0  0  0  0  0  0
   -5.4621   -5.3095    1.7110 H   0  0  0  0  0  0
   -6.0447   -5.5958    0.0361 H   0  0  0  0  0  0
   -5.0679   -4.1353    0.4100 H   0  0  0  0  0  0
   -3.1171   -5.5759    0.9410 H   0  0  0  0  0  0
   -4.0938   -7.0364    0.5671 H   0  0  0  0  0  0
   -1.3770    1.2261   -1.5942 H   0  0  0  0  0  0
   -0.0610   -0.0385   -0.0470 H   0  0  0  0  0  0
   -0.4975   -2.3626    0.2762 H   0  0  0  0  0  0
   -6.6935   -3.3344   -2.5974 H   0  0  0  0  0  0
   -8.3420   -4.5709   -3.9621 H   0  0  0  0  0  0
   -7.6051   -6.4425   -5.4134 H   0  0  0  0  0  0
   -5.2087   -7.0771   -5.4987 H   0  0  0  0  0  0
   -3.5499   -5.8495   -4.1396 H   0  0  0  0  0  0
    1.8483   -9.1256   -2.4802 H   0  0  0  0  0  0
   -4.2376  -10.4062   -2.3904 H   0  0  0  0  0  0
   -4.3925   -8.1816   -1.7346 H   0  0  0  0  0  0
  1  2  1  0  0  0
  1 33  1  0  0  0
  1 34  1  0  0  0
  1 35  1  0  0  0
  2  3  1  0  0  0
  2 36  1  0  0  0
  2 37  1  0  0  0
  3  4  1  0  0  0
  3  5  1  0  0  0
  3 23  1  0  0  0
  5 16  1  0  0  0
  5  6  2  0  0  0
  6  7  1  0  0  0
  7 12  2  0  0  0
  7  8  1  0  0  0
  8  9  2  0  0  0
  8 14  1  0  0  0
  9 10  1  0  0  0
  9 13  1  0  0  0
 10 11  2  0  0  0
 10 38  1  0  0  0
 11 12  1  0  0  0
 11 39  1  0  0  0
 12 40  1  0  0  0
 14 15  2  0  0  0
 14 16  1  0  0  0
 16 17  1  0  0  0
 17 22  2  0  0  0
 17 18  1  0  0  0
 18 19  2  0  0  0
 18 41  1  0  0  0
 19 20  1  0  0  0
 19 42  1  0  0  0
 20 21  2  0  0  0
 20 43  1  0  0  0
 21 22  1  0  0  0
 21 44  1  0  0  0
 22 45  1  0  0  0
 23 24  2  0  0  0
 24 32  1  0  0  0
 24 25  1  0  0  0
 25 29  1  0  0  0
 25 26  2  0  0  0
 26 27  1  0  0  0
 26 30  1  0  0  0
 27 28  1  0  0  0
 28 29  2  0  0  0
 28 46  1  0  0  0
 30 31  2  0  0  0
 31 47  1  0  0  0
 31 32  1  0  0  0
 32 48  1  0  0  0
M  CHG  1  27  -1
M  END
> <s_m_source_file>
/Users/andrea/Development/mcce-charges/epik_inhibitors/output/Idelalisib/Idelalisib-input.mol2

> <i_m_source_file_index>
1

> <r_lp_tautomer_probability>
5.04794885403077e-06

> <r_epik_Ionization_Penalty>
  7.6668

> <r_epik_Ionization_Penalty_Charging>
  1.4356

> <r_epik_Ionization_Penalty_Neutral>
  6.2311

> <r_epik_State_Penalty>
  7.8904

> <i_epik_Tot_Q>
-1

$$$$
5-fluoro-3-phenyl-2-[(1~{S})-1-(1~{H}-purin-6-ylamino)propyl]quinazolin-4-one
                    3D
 Structure written by MMmdl.
 48 52  0  0  1  0            999 V2000
    0.4604   -4.1220   -2.3937 C   0  0  0  0  0  0
   -0.7568   -5.0193   -2.5684 C   0  0  0  0  0  0
   -1.1374   -5.7406   -1.2797 C   0  0  1  0  0  0
   -0.2939   -6.3997   -1.0266 H   0  0  0  0  0  0
   -1.4943   -4.7488   -0.1913 C   0  0  0  0  0  0
   -2.4907   -3.9590   -0.4514 N   0  0  0  0  0  0
   -2.8153   -2.9561    0.4674 C   0  0  0  0  0  0
   -2.0884   -2.7641    1.6422 C   0  0  0  0  0  0
   -2.4241   -1.7348    2.5299 C   0  0  0  0  0  0
   -3.4948   -0.8908    2.2384 C   0  0  0  0  0  0
   -4.2276   -1.0745    1.0684 C   0  0  0  0  0  0
   -3.8883   -2.1020    0.1870 C   0  0  0  0  0  0
   -1.7353   -1.5358    3.6624 F   0  0  0  0  0  0
   -0.9736   -3.6861    1.9449 C   0  0  0  0  0  0
   -0.3814   -3.5521    3.0134 O   0  0  0  0  0  0
   -0.7357   -4.6879    0.9802 N   0  0  0  0  0  0
    0.2831   -5.6557    1.2816 C   0  0  0  0  0  0
    1.6045   -5.2448    1.4573 C   0  0  0  0  0  0
    2.5935   -6.1836    1.7511 C   0  0  0  0  0  0
    2.2612   -7.5331    1.8691 C   0  0  0  0  0  0
    0.9398   -7.9440    1.6932 C   0  0  0  0  0  0
   -0.0492   -7.0053    1.3994 C   0  0  0  0  0  0
   -2.3142   -6.5528   -1.4252 N   0  0  0  0  0  0
   -2.2705   -7.8323   -1.7974 C   0  0  0  0  0  0
   -1.1114   -8.4938   -2.0752 C   0  0  0  0  0  0
   -1.1078   -9.9051   -2.4824 C   0  0  0  0  0  0
    0.1130  -10.2981   -2.6880 N   0  5  0  0  0  0
    0.8509   -9.1523   -2.4128 C   0  0  0  0  0  0
    0.1922   -8.0841   -2.0550 N   0  0  0  0  0  0
   -2.2641  -10.6274   -2.6033 N   0  0  0  0  0  0
   -3.3449   -9.9597   -2.3289 C   0  0  0  0  0  0
   -3.4155   -8.6421   -1.9429 N   0  0  0  0  0  0
    0.6914   -3.6274   -3.3488 H   0  0  0  0  0  0
    1.3213   -4.7293   -2.0777 H   0  0  0  0  0  0
    0.2480   -3.3608   -1.6286 H   0  0  0  0  0  0
   -1.6177   -4.4119   -2.8845 H   0  0  0  0  0  0
   -0.5445   -5.7805   -3.3335 H   0  0  0  0  0  0
   -3.7356   -0.1526    2.8685 H   0  0  0  0  0  0
   -4.9976   -0.4712    0.8607 H   0  0  0  0  0  0
   -4.4218   -2.2273   -0.6494 H   0  0  0  0  0  0
    1.8747   -4.1955    1.3689 H   0  0  0  0  0  0
    3.6224   -5.8642    1.8885 H   0  0  0  0  0  0
    3.0314   -8.2640    2.0973 H   0  0  0  0  0  0
    0.6816   -8.9948    1.7854 H   0  0  0  0  0  0
   -1.0757   -7.3373    1.2656 H   0  0  0  0  0  0
    1.8483   -9.1256   -2.4802 H   0  0  0  0  0  0
   -4.2376  -10.4062   -2.3904 H   0  0  0  0  0  0
   -4.3925   -8.1816   -1.7346 H   0  0  0  0  0  0
  1  2  1  0  0  0
  1 33  1  0  0  0
  1 34  1  0  0  0
  1 35  1  0  0  0
  2  3  1  0  0  0
  2 36  1  0  0  0
  2 37  1  0  0  0
  3  4  1  0  0  0
  3  5  1  0  0  0
  3 23  1  0  0  0
  5 16  1  0  0  0
  5  6  2  0  0  0
  6  7  1  0  0  0
  7 12  2  0  0  0
  7  8  1  0  0  0
  8  9  2  0  0  0
  8 14  1  0  0  0
  9 10  1  0  0  0
  9 13  1  0  0  0
 10 11  2  0  0  0
 10 38  1  0  0  0
 11 12  1  0  0  0
 11 39  1  0  0  0
 12 40  1  0  0  0
 14 15  2  0  0  0
 14 16  1  0  0  0
 16 17  1  0  0  0
 17 22  2  0  0  0
 17 18  1  0  0  0
 18 19  2  0  0  0
 18 41  1  0  0  0
 19 20  1  0  0  0
 19 42  1  0  0  0
 20 21  2  0  0  0
 20 43  1  0  0  0
 21 22  1  0  0  0
 21 44  1  0  0  0
 22 45  1  0  0  0
 23 24  2  0  0  0
 24 32  1  0  0  0
 24 25  1  0  0  0
 25 29  1  0  0  0
 25 26  2  0  0  0
 26 27  1  0  0  0
 26 30  1  0  0  0
 27 28  1  0  0  0
 28 29  2  0  0  0
 28 46  1  0  0  0
 30 31  2  0  0  0
 31 47  1  0  0  0
 31 32  1  0  0  0
 32 48  1  0  0  0
M  CHG  1  27  -1
M  END
> <s_m_source_file>
/Users/andrea/Development/mcce-charges/epik_inhibitors/output/Idelalisib/Idelalisib-input.mol2

> <i_m_source_file_index>
1

> <r_lp_tautomer_probability>
5.04794885403077e-06

> <r_epik_Ionization_Penalty>
  7.6668

> <r_epik_Ionization_Penalty_Charging>
  1.4356

> <r_epik_Ionization_Penalty_Neutral>
  6.2311

> <r_epik_State_Penalty>
  7.9116

> <i_epik_Tot_Q>
-1

$$$$
5-fluoro-3-phenyl-2-[(1~{S})-1-(1~{H}-purin-6-ylamino)propyl]quinazolin-4-one
                    3D
 Structure written by MMmdl.
 50 54  0  0  1  0            999 V2000
   -5.2169   -5.2027    0.6501 C   0  0  0  0  0  0
   -3.9428   -5.9748    0.3377 C   0  0  0  0  0  0
   -3.5419   -5.8663   -1.1298 C   0  0  1  0  0  0
   -4.3470   -6.3383   -1.7121 H   0  0  0  0  0  0
   -3.2683   -4.4253   -1.5094 C   0  0  0  0  0  0
   -2.3187   -3.8375   -0.8483 N   0  0  0  0  0  0
   -2.0749   -2.4801   -1.0793 C   0  0  0  0  0  0
   -2.8343   -1.7339   -1.9804 C   0  0  0  0  0  0
   -2.5804   -0.3703   -2.1710 C   0  0  0  0  0  0
   -1.5595    0.2509   -1.4530 C   0  0  0  0  0  0
   -0.7949   -0.4854   -0.5514 C   0  0  0  0  0  0
   -1.0526   -1.8443   -0.3653 C   0  0  0  0  0  0
   -3.3014    0.3615   -3.0320 F   0  0  0  0  0  0
   -3.8945   -2.4175   -2.7506 C   0  0  0  0  0  0
   -4.5139   -1.7687   -3.5907 O   0  0  0  0  0  0
   -4.0511   -3.7931   -2.4786 N   0  0  0  0  0  0
   -5.0126   -4.5100   -3.2704 C   0  0  0  0  0  0
   -6.3602   -4.1531   -3.2219 C   0  0  0  0  0  0
   -7.2937   -4.8476   -3.9912 C   0  0  0  0  0  0
   -6.8797   -5.8990   -4.8090 C   0  0  0  0  0  0
   -5.5321   -6.2560   -4.8574 C   0  0  0  0  0  0
   -4.5986   -5.5615   -4.0881 C   0  0  0  0  0  0
   -2.3139   -6.5538   -1.4218 N   0  0  0  0  0  0
   -2.2703   -7.8330   -1.7952 C   0  0  0  0  0  0
   -1.1113   -8.4941   -2.0743 C   0  0  0  0  0  0
   -1.1078   -9.9051   -2.4826 C   0  0  0  0  0  0
    0.1130  -10.2980   -2.6883 N   0  0  0  0  0  0
    0.8509   -9.1521   -2.4137 C   0  0  0  0  0  0
    0.1923   -8.0842   -2.0546 N   0  0  0  0  0  0
   -2.2642  -10.6271   -2.6042 N   0  0  0  0  0  0
   -3.3450   -9.9593   -2.3304 C   0  0  0  0  0  0
   -3.4154   -8.6422   -1.9425 N   0  3  0  0  0  0
   -5.4606   -5.3135    1.7170 H   0  0  0  0  0  0
   -6.0438   -5.5983    0.0420 H   0  0  0  0  0  0
   -5.0670   -4.1382    0.4168 H   0  0  0  0  0  0
   -3.1159   -5.5791    0.9457 H   0  0  0  0  0  0
   -4.0926   -7.0393    0.5709 H   0  0  0  0  0  0
   -1.3773    1.2254   -1.5841 H   0  0  0  0  0  0
   -0.0605   -0.0407   -0.0386 H   0  0  0  0  0  0
   -0.4967   -2.3650    0.2827 H   0  0  0  0  0  0
   -6.6939   -3.3346   -2.5891 H   0  0  0  0  0  0
   -8.3430   -4.5699   -3.9542 H   0  0  0  0  0  0
   -7.6066   -6.4401   -5.4075 H   0  0  0  0  0  0
   -5.2102   -7.0745   -5.4945 H   0  0  0  0  0  0
   -3.5509   -5.8481   -4.1350 H   0  0  0  0  0  0
    0.4394   -7.0497   -1.7739 H   0  0  0  0  0  0
    1.8475   -9.1680   -2.4940 H   0  0  0  0  0  0
   -4.1820  -10.4986   -2.4235 H   0  0  0  0  0  0
   -1.3538   -6.0231   -1.3410 H   0  0  0  0  0  0
   -4.3924   -8.1818   -1.7341 H   0  0  0  0  0  0
  1  2  1  0  0  0
  1 33  1  0  0  0
  1 34  1  0  0  0
  1 35  1  0  0  0
  2  3  1  0  0  0
  2 36  1  0  0  0
  2 37  1  0  0  0
  3  4  1  0  0  0
  3  5  1  0  0  0
  3 23  1  0  0  0
  5 16  1  0  0  0
  5  6  2  0  0  0
  6  7  1  0  0  0
  7 12  2  0  0  0
  7  8  1  0  0  0
  8  9  2  0  0  0
  8 14  1  0  0  0
  9 10  1  0  0  0
  9 13  1  0  0  0
 10 11  2  0  0  0
 10 38  1  0  0  0
 11 12  1  0  0  0
 11 39  1  0  0  0
 12 40  1  0  0  0
 14 15  2  0  0  0
 14 16  1  0  0  0
 16 17  1  0  0  0
 17 22  2  0  0  0
 17 18  1  0  0  0
 18 19  2  0  0  0
 18 41  1  0  0  0
 19 20  1  0  0  0
 19 42  1  0  0  0
 20 21  2  0  0  0
 20 43  1  0  0  0
 21 22  1  0  0  0
 21 44  1  0  0  0
 22 45  1  0  0  0
 23 24  1  0  0  0
 23 49  1  0  0  0
 24 32  1  0  0  0
 24 25  2  0  0  0
 25 29  1  0  0  0
 25 26  1  0  0  0
 26 27  1  0  0  0
 26 30  2  0  0  0
 27 28  2  0  0  0
 28 29  1  0  0  0
 28 47  1  0  0  0
 29 46  1  0  0  0
 30 31  1  0  0  0
 31 48  1  0  0  0
 31 32  2  0  0  0
 32 50  1  0  0  0
M  CHG  1  32   1
M  END
> <s_m_source_file>
/Users/andrea/Development/mcce-charges/epik_inhibitors/output/Idelalisib/Idelalisib-input.mol2

> <i_m_source_file_index>
1

> <r_lp_tautomer_probability>
0.0141405654069616

> <r_epik_Ionization_Penalty>
  6.4101

> <r_epik_Ionization_Penalty_Charging>
  4.2128

> <r_epik_Ionization_Penalty_Neutral>
  2.1973

> <r_epik_State_Penalty>
  8.2090

> <i_epik_Tot_Q>
1

$$$$
5-fluoro-3-phenyl-2-[(1~{S})-1-(1~{H}-purin-6-ylamino)propyl]quinazolin-4-one
                    3D
 Structure written by MMmdl.
 49 53  0  0  1  0            999 V2000
    0.4604   -4.1220   -2.3937 C   0  0  0  0  0  0
   -0.7568   -5.0193   -2.5684 C   0  0  0  0  0  0
   -1.1374   -5.7406   -1.2797 C   0  0  1  0  0  0
   -0.2939   -6.3997   -1.0266 H   0  0  0  0  0  0
   -1.4943   -4.7488   -0.1913 C   0  0  0  0  0  0
   -2.4907   -3.9590   -0.4514 N   0  0  0  0  0  0
   -2.8153   -2.9561    0.4674 C   0  0  0  0  0  0
   -2.0884   -2.7641    1.6422 C   0  0  0  0  0  0
   -2.4241   -1.7348    2.5299 C   0  0  0  0  0  0
   -3.4948   -0.8908    2.2384 C   0  0  0  0  0  0
   -4.2276   -1.0745    1.0684 C   0  0  0  0  0  0
   -3.8883   -2.1020    0.1870 C   0  0  0  0  0  0
   -1.7353   -1.5358    3.6624 F   0  0  0  0  0  0
   -0.9736   -3.6861    1.9449 C   0  0  0  0  0  0
   -0.3814   -3.5521    3.0134 O   0  0  0  0  0  0
   -0.7357   -4.6879    0.9802 N   0  0  0  0  0  0
    0.2831   -5.6557    1.2816 C   0  0  0  0  0  0
    1.6045   -5.2448    1.4573 C   0  0  0  0  0  0
    2.5935   -6.1836    1.7511 C   0  0  0  0  0  0
    2.2612   -7.5331    1.8691 C   0  0  0  0  0  0
    0.9398   -7.9440    1.6932 C   0  0  0  0  0  0
   -0.0492   -7.0053    1.3994 C   0  0  0  0  0  0
   -2.3142   -6.5528   -1.4252 N   0  0  0  0  0  0
   -2.2705   -7.8323   -1.7974 C   0  0  0  0  0  0
   -1.1114   -8.4938   -2.0752 C   0  0  0  0  0  0
   -1.1078   -9.9051   -2.4824 C   0  0  0  0  0  0
    0.1130  -10.2981   -2.6880 N   0  0  0  0  0  0
    0.8509   -9.1523   -2.4128 C   0  0  0  0  0  0
    0.1922   -8.0841   -2.0550 N   0  0  0  0  0  0
   -2.2641  -10.6274   -2.6033 N   0  0  0  0  0  0
   -3.3449   -9.9597   -2.3289 C   0  0  0  0  0  0
   -3.4155   -8.6421   -1.9429 N   0  0  0  0  0  0
    0.6914   -3.6274   -3.3488 H   0  0  0  0  0  0
    1.3213   -4.7293   -2.0777 H   0  0  0  0  0  0
    0.2480   -3.3608   -1.6286 H   0  0  0  0  0  0
   -1.6177   -4.4119   -2.8845 H   0  0  0  0  0  0
   -0.5445   -5.7805   -3.3335 H   0  0  0  0  0  0
   -3.7356   -0.1526    2.8685 H   0  0  0  0  0  0
   -4.9976   -0.4712    0.8607 H   0  0  0  0  0  0
   -4.4218   -2.2273   -0.6494 H   0  0  0  0  0  0
    1.8747   -4.1955    1.3689 H   0  0  0  0  0  0
    3.6224   -5.8642    1.8885 H   0  0  0  0  0  0
    3.0314   -8.2640    2.0973 H   0  0  0  0  0  0
    0.6816   -8.9948    1.7854 H   0  0  0  0  0  0
   -1.0757   -7.3373    1.2656 H   0  0  0  0  0  0
    0.6256  -11.2222   -2.9934 H   0  0  0  0  0  0
    1.8483   -9.1256   -2.4802 H   0  0  0  0  0  0
   -4.2376  -10.4062   -2.3904 H   0  0  0  0  0  0
   -4.3925   -8.1816   -1.7346 H   0  0  0  0  0  0
  1  2  1  0  0  0
  1 33  1  0  0  0
  1 34  1  0  0  0
  1 35  1  0  0  0
  2  3  1  0  0  0
  2 36  1  0  0  0
  2 37  1  0  0  0
  3  4  1  0  0  0
  3  5  1  0  0  0
  3 23  1  0  0  0
  5 16  1  0  0  0
  5  6  2  0  0  0
  6  7  1  0  0  0
  7 12  2  0  0  0
  7  8  1  0  0  0
  8  9  2  0  0  0
  8 14  1  0  0  0
  9 10  1  0  0  0
  9 13  1  0  0  0
 10 11  2  0  0  0
 10 38  1  0  0  0
 11 12  1  0  0  0
 11 39  1  0  0  0
 12 40  1  0  0  0
 14 15  2  0  0  0
 14 16  1  0  0  0
 16 17  1  0  0  0
 17 22  2  0  0  0
 17 18  1  0  0  0
 18 19  2  0  0  0
 18 41  1  0  0  0
 19 20  1  0  0  0
 19 42  1  0  0  0
 20 21  2  0  0  0
 20 43  1  0  0  0
 21 22  1  0  0  0
 21 44  1  0  0  0
 22 45  1  0  0  0
 23 24  2  0  0  0
 24 32  1  0  0  0
 24 25  1  0  0  0
 25 29  1  0  0  0
 25 26  2  0  0  0
 26 27  1  0  0  0
 26 30  1  0  0  0
 27 28  1  0  0  0
 27 46  1  0  0  0
 28 29  2  0  0  0
 28 47  1  0  0  0
 30 31  2  0  0  0
 31 48  1  0  0  0
 31 32  1  0  0  0
 32 49  1  0  0  0
M  END
> <s_m_source_file>
/Users/andrea/Development/mcce-charges/epik_inhibitors/output/Idelalisib/Idelalisib-input.mol2

> <i_m_source_file_index>
1

> <r_lp_tautomer_probability>
1.32997458168389e-06

> <r_epik_Ionization_Penalty>
  1.9011

> <r_epik_Ionization_Penalty_Charging>
  1.7906

> <r_epik_Ionization_Penalty_Neutral>
  0.1105

> <r_epik_State_Penalty>
  9.3106

> <i_epik_Tot_Q>
0

$$$$
5-fluoro-3-phenyl-2-[(1~{S})-1-(1~{H}-purin-6-ylamino)propyl]quinazolin-4-one
                    3D
 Structure written by MMmdl.
 49 53  0  0  1  0            999 V2000
   -5.2180   -5.1996    0.6441 C   0  0  0  0  0  0
   -3.9438   -5.9721    0.3330 C   0  0  0  0  0  0
   -3.5422   -5.8650   -1.1344 C   0  0  1  0  0  0
   -4.3471   -6.3375   -1.7166 H   0  0  0  0  0  0
   -3.2684   -4.4243   -1.5152 C   0  0  0  0  0  0
   -2.3191   -3.8360   -0.8542 N   0  0  0  0  0  0
   -2.0751   -2.4788   -1.0864 C   0  0  0  0  0  0
   -2.8340   -1.7334   -1.9885 C   0  0  0  0  0  0
   -2.5800   -0.3700   -2.1802 C   0  0  0  0  0  0
   -1.5594    0.2518   -1.4623 C   0  0  0  0  0  0
   -0.7952   -0.4837   -0.5597 C   0  0  0  0  0  0
   -1.0530   -1.8424   -0.3725 C   0  0  0  0  0  0
   -3.3006    0.3611   -3.0422 F   0  0  0  0  0  0
   -3.8939   -2.4176   -2.7585 C   0  0  0  0  0  0
   -4.5129   -1.7696   -3.5995 O   0  0  0  0  0  0
   -4.0507   -3.7930   -2.4853 N   0  0  0  0  0  0
   -5.0119   -4.5105   -3.2769 C   0  0  0  0  0  0
   -6.3595   -4.1535   -3.2293 C   0  0  0  0  0  0
   -7.2927   -4.8487   -3.9984 C   0  0  0  0  0  0
   -6.8784   -5.9009   -4.8150 C   0  0  0  0  0  0
   -5.5308   -6.2580   -4.8625 C   0  0  0  0  0  0
   -4.5976   -5.5628   -4.0934 C   0  0  0  0  0  0
   -2.3142   -6.5528   -1.4252 N   0  0  0  0  0  0
   -2.2705   -7.8323   -1.7974 C   0  0  0  0  0  0
   -1.1114   -8.4938   -2.0752 C   0  0  0  0  0  0
   -1.1078   -9.9051   -2.4824 C   0  0  0  0  0  0
    0.1130  -10.2981   -2.6880 N   0  0  0  0  0  0
    0.8509   -9.1523   -2.4128 C   0  0  0  0  0  0
    0.1922   -8.0841   -2.0550 N   0  0  0  0  0  0
   -2.2641  -10.6274   -2.6033 N   0  0  0  0  0  0
   -3.3449   -9.9597   -2.3289 C   0  0  0  0  0  0
   -3.4155   -8.6421   -1.9429 N   0  0  0  0  0  0
   -5.4621   -5.3095    1.7110 H   0  0  0  0  0  0
   -6.0447   -5.5958    0.0361 H   0  0  0  0  0  0
   -5.0679   -4.1353    0.4100 H   0  0  0  0  0  0
   -3.1171   -5.5759    0.9410 H   0  0  0  0  0  0
   -4.0938   -7.0364    0.5671 H   0  0  0  0  0  0
   -1.3770    1.2261   -1.5942 H   0  0  0  0  0  0
   -0.0610   -0.0385   -0.0470 H   0  0  0  0  0  0
   -0.4975   -2.3626    0.2762 H   0  0  0  0  0  0
   -6.6935   -3.3344   -2.5974 H   0  0  0  0  0  0
   -8.3420   -4.5709   -3.9621 H   0  0  0  0  0  0
   -7.6051   -6.4425   -5.4134 H   0  0  0  0  0  0
   -5.2087   -7.0771   -5.4987 H   0  0  0  0  0  0
   -3.5499   -5.8495   -4.1396 H   0  0  0  0  0  0
    0.6256  -11.2222   -2.9934 H   0  0  0  0  0  0
    1.8483   -9.1256   -2.4802 H   0  0  0  0  0  0
   -4.2376  -10.4062   -2.3904 H   0  0  0  0  0  0
   -4.3925   -8.1816   -1.7346 H   0  0  0  0  0  0
  1  2  1  0  0  0
  1 33  1  0  0  0
  1 34  1  0  0  0
  1 35  1  0  0  0
  2  3  1  0  0  0
  2 36  1  0  0  0
  2 37  1  0  0  0
  3  4  1  0  0  0
  3  5  1  0  0  0
  3 23  1  0  0  0
  5 16  1  0  0  0
  5  6  2  0  0  0
  6  7  1  0  0  0
  7 12  2  0  0  0
  7  8  1  0  0  0
  8  9  2  0  0  0
  8 14  1  0  0  0
  9 10  1  0  0  0
  9 13  1  0  0  0
 10 11  2  0  0  0
 10 38  1  0  0  0
 11 12  1  0  0  0
 11 39  1  0  0  0
 12 40  1  0  0  0
 14 15  2  0  0  0
 14 16  1  0  0  0
 16 17  1  0  0  0
 17 22  2  0  0  0
 17 18  1  0  0  0
 18 19  2  0  0  0
 18 41  1  0  0  0
 19 20  1  0  0  0
 19 42  1  0  0  0
 20 21  2  0  0  0
 20 43  1  0  0  0
 21 22  1  0  0  0
 21 44  1  0  0  0
 22 45  1  0  0  0
 23 24  2  0  0  0
 24 32  1  0  0  0
 24 25  1  0  0  0
 25 29  1  0  0  0
 25 26  2  0  0  0
 26 27  1  0  0  0
 26 30  1  0  0  0
 27 28  1  0  0  0
 27 46  1  0  0  0
 28 29  2  0  0  0
 28 47  1  0  0  0
 30 31  2  0  0  0
 31 48  1  0  0  0
 31 32  1  0  0  0
 32 49  1  0  0  0
M  END
> <s_m_source_file>
/Users/andrea/Development/mcce-charges/epik_inhibitors/output/Idelalisib/Idelalisib-input.mol2

> <i_m_source_file_index>
1

> <r_lp_tautomer_probability>
1.32997458168389e-06

> <r_epik_Ionization_Penalty>
  1.9011

> <r_epik_Ionization_Penalty_Charging>
  1.7906

> <r_epik_Ionization_Penalty_Neutral>
  0.1105

> <r_epik_State_Penalty>
  9.4031

> <i_epik_Tot_Q>
0

$$$$
5-fluoro-3-phenyl-2-[(1~{S})-1-(1~{H}-purin-6-ylamino)propyl]quinazolin-4-one
                    3D
 Structure written by MMmdl.
 48 52  0  0  1  0            999 V2000
   -5.2169   -5.2027    0.6501 C   0  0  0  0  0  0
   -3.9428   -5.9748    0.3377 C   0  0  0  0  0  0
   -3.5419   -5.8663   -1.1298 C   0  0  1  0  0  0
   -4.3470   -6.3383   -1.7121 H   0  0  0  0  0  0
   -3.2683   -4.4253   -1.5094 C   0  0  0  0  0  0
   -2.3187   -3.8375   -0.8483 N   0  0  0  0  0  0
   -2.0749   -2.4801   -1.0793 C   0  0  0  0  0  0
   -2.8343   -1.7339   -1.9804 C   0  0  0  0  0  0
   -2.5804   -0.3703   -2.1710 C   0  0  0  0  0  0
   -1.5595    0.2509   -1.4530 C   0  0  0  0  0  0
   -0.7949   -0.4854   -0.5514 C   0  0  0  0  0  0
   -1.0526   -1.8443   -0.3653 C   0  0  0  0  0  0
   -3.3014    0.3615   -3.0320 F   0  0  0  0  0  0
   -3.8945   -2.4175   -2.7506 C   0  0  0  0  0  0
   -4.5139   -1.7687   -3.5907 O   0  0  0  0  0  0
   -4.0511   -3.7931   -2.4786 N   0  0  0  0  0  0
   -5.0126   -4.5100   -3.2704 C   0  0  0  0  0  0
   -6.3602   -4.1531   -3.2219 C   0  0  0  0  0  0
   -7.2937   -4.8476   -3.9912 C   0  0  0  0  0  0
   -6.8797   -5.8990   -4.8090 C   0  0  0  0  0  0
   -5.5321   -6.2560   -4.8574 C   0  0  0  0  0  0
   -4.5986   -5.5615   -4.0881 C   0  0  0  0  0  0
   -2.3139   -6.5538   -1.4218 N   0  5  0  0  0  0
   -2.2703   -7.8330   -1.7952 C   0  0  0  0  0  0
   -1.1113   -8.4941   -2.0743 C   0  0  0  0  0  0
   -1.1078   -9.9051   -2.4826 C   0  0  0  0  0  0
    0.1130  -10.2980   -2.6883 N   0  0  0  0  0  0
    0.8509   -9.1521   -2.4137 C   0  0  0  0  0  0
    0.1923   -8.0842   -2.0546 N   0  0  0  0  0  0
   -2.2642  -10.6271   -2.6042 N   0  0  0  0  0  0
   -3.3450   -9.9593   -2.3304 C   0  0  0  0  0  0
   -3.4154   -8.6422   -1.9425 N   0  0  0  0  0  0
   -5.4606   -5.3135    1.7170 H   0  0  0  0  0  0
   -6.0438   -5.5983    0.0420 H   0  0  0  0  0  0
   -5.0670   -4.1382    0.4168 H   0  0  0  0  0  0
   -3.1159   -5.5791    0.9457 H   0  0  0  0  0  0
   -4.0926   -7.0393    0.5709 H   0  0  0  0  0  0
   -1.3773    1.2254   -1.5841 H   0  0  0  0  0  0
   -0.0605   -0.0407   -0.0386 H   0  0  0  0  0  0
   -0.4967   -2.3650    0.2827 H   0  0  0  0  0  0
   -6.6939   -3.3346   -2.5891 H   0  0  0  0  0  0
   -8.3430   -4.5699   -3.9542 H   0  0  0  0  0  0
   -7.6066   -6.4401   -5.4075 H   0  0  0  0  0  0
   -5.2102   -7.0745   -5.4945 H   0  0  0  0  0  0
   -3.5509   -5.8481   -4.1350 H   0  0  0  0  0  0
    0.6255  -11.2222   -2.9936 H   0  0  0  0  0  0
    1.8482   -9.1252   -2.4816 H   0  0  0  0  0  0
   -4.1820  -10.4986   -2.4235 H   0  0  0  0  0  0
  1  2  1  0  0  0
  1 33  1  0  0  0
  1 34  1  0  0  0
  1 35  1  0  0  0
  2  3  1  0  0  0
  2 36  1  0  0  0
  2 37  1  0  0  0
  3  4  1  0  0  0
  3  5  1  0  0  0
  3 23  1  0  0  0
  5 16  1  0  0  0
  5  6  2  0  0  0
  6  7  1  0  0  0
  7 12  2  0  0  0
  7  8  1  0  0  0
  8  9  2  0  0  0
  8 14  1  0  0  0
  9 10  1  0  0  0
  9 13  1  0  0  0
 10 11  2  0  0  0
 10 38  1  0  0  0
 11 12  1  0  0  0
 11 39  1  0  0  0
 12 40  1  0  0  0
 14 15  2  0  0  0
 14 16  1  0  0  0
 16 17  1  0  0  0
 17 22  2  0  0  0
 17 18  1  0  0  0
 18 19  2  0  0  0
 18 41  1  0  0  0
 19 20  1  0  0  0
 19 42  1  0  0  0
 20 21  2  0  0  0
 20 43  1  0  0  0
 21 22  1  0  0  0
 21 44  1  0  0  0
 22 45  1  0  0  0
 23 24  1  0  0  0
 24 32  1  0  0  0
 24 25  2  0  0  0
 25 29  1  0  0  0
 25 26  1  0  0  0
 26 27  1  0  0  0
 26 30  2  0  0  0
 27 28  1  0  0  0
 27 46  1  0  0  0
 28 29  2  0  0  0
 28 47  1  0  0  0
 30 31  1  0  0  0
 31 48  1  0  0  0
 31 32  2  0  0  0
M  CHG  1  23  -1
M  END
> <s_m_source_file>
/Users/andrea/Development/mcce-charges/epik_inhibitors/output/Idelalisib/Idelalisib-input.mol2

> <i_m_source_file_index>
1

> <r_lp_tautomer_probability>
9.82390046394578e-09

> <r_epik_Ionization_Penalty>
  7.7929

> <r_epik_Ionization_Penalty_Charging>
  7.7618

> <r_epik_Ionization_Penalty_Neutral>
  0.0311

> <r_epik_State_Penalty>
  9.4478

> <i_epik_Tot_Q>
-1

$$$$
5-fluoro-3-phenyl-2-[(1~{S})-1-(1~{H}-purin-6-ylamino)propyl]quinazolin-4-one
                    3D
 Structure written by MMmdl.
 48 52  0  0  1  0            999 V2000
   -5.2180   -5.1996    0.6441 C   0  0  0  0  0  0
   -3.9438   -5.9721    0.3330 C   0  0  0  0  0  0
   -3.5422   -5.8650   -1.1344 C   0  0  1  0  0  0
   -4.3471   -6.3375   -1.7166 H   0  0  0  0  0  0
   -3.2684   -4.4243   -1.5152 C   0  0  0  0  0  0
   -2.3191   -3.8360   -0.8542 N   0  0  0  0  0  0
   -2.0751   -2.4788   -1.0864 C   0  0  0  0  0  0
   -2.8340   -1.7334   -1.9885 C   0  0  0  0  0  0
   -2.5800   -0.3700   -2.1802 C   0  0  0  0  0  0
   -1.5594    0.2518   -1.4623 C   0  0  0  0  0  0
   -0.7952   -0.4837   -0.5597 C   0  0  0  0  0  0
   -1.0530   -1.8424   -0.3725 C   0  0  0  0  0  0
   -3.3006    0.3611   -3.0422 F   0  0  0  0  0  0
   -3.8939   -2.4176   -2.7585 C   0  0  0  0  0  0
   -4.5129   -1.7696   -3.5995 O   0  0  0  0  0  0
   -4.0507   -3.7930   -2.4853 N   0  0  0  0  0  0
   -5.0119   -4.5105   -3.2769 C   0  0  0  0  0  0
   -6.3595   -4.1535   -3.2293 C   0  0  0  0  0  0
   -7.2927   -4.8487   -3.9984 C   0  0  0  0  0  0
   -6.8784   -5.9009   -4.8150 C   0  0  0  0  0  0
   -5.5308   -6.2580   -4.8625 C   0  0  0  0  0  0
   -4.5976   -5.5628   -4.0934 C   0  0  0  0  0  0
   -2.3142   -6.5528   -1.4252 N   0  5  0  0  0  0
   -2.2705   -7.8323   -1.7974 C   0  0  0  0  0  0
   -1.1114   -8.4938   -2.0754 C   0  0  0  0  0  0
   -1.1078   -9.9051   -2.4826 C   0  0  0  0  0  0
    0.1130  -10.2980   -2.6883 N   0  0  0  0  0  0
    0.8509   -9.1522   -2.4133 C   0  0  0  0  0  0
    0.1922   -8.0840   -2.0554 N   0  0  0  0  0  0
   -2.2642  -10.6271   -2.6042 N   0  0  0  0  0  0
   -3.3450   -9.9593   -2.3304 C   0  0  0  0  0  0
   -3.4156   -8.6416   -1.9447 N   0  0  0  0  0  0
   -5.4621   -5.3095    1.7110 H   0  0  0  0  0  0
   -6.0447   -5.5958    0.0361 H   0  0  0  0  0  0
   -5.0679   -4.1353    0.4100 H   0  0  0  0  0  0
   -3.1171   -5.5759    0.9410 H   0  0  0  0  0  0
   -4.0938   -7.0364    0.5671 H   0  0  0  0  0  0
   -1.3617    1.3100   -1.6059 H   0  0  0  0  0  0
    0.0023   -0.0008   -0.0026 H   0  0  0  0  0  0
   -0.4468   -2.4048    0.3338 H   0  0  0  0  0  0
   -6.6935   -3.3344   -2.5974 H   0  0  0  0  0  0
   -8.3420   -4.5709   -3.9621 H   0  0  0  0  0  0
   -7.6051   -6.4425   -5.4134 H   0  0  0  0  0  0
   -5.2087   -7.0771   -5.4987 H   0  0  0  0  0  0
   -3.5499   -5.8495   -4.1396 H   0  0  0  0  0  0
    1.9481   -9.1667   -2.5001 H   0  0  0  0  0  0
   -4.3338  -10.4397   -2.3949 H   0  0  0  0  0  0
   -4.4138   -8.2231   -1.7486 H   0  0  0  0  0  0
  1  2  1  0  0  0
  1 33  1  0  0  0
  1 34  1  0  0  0
  1 35  1  0  0  0
  2  3  1  0  0  0
  2 36  1  0  0  0
  2 37  1  0  0  0
  3  4  1  0  0  0
  3  5  1  0  0  0
  3 23  1  0  0  0
  5 16  1  0  0  0
  5  6  2  0  0  0
  6  7  1  0  0  0
  7 12  2  0  0  0
  7  8  1  0  0  0
  8  9  2  0  0  0
  8 14  1  0  0  0
  9 10  1  0  0  0
  9 13  1  0  0  0
 10 11  2  0  0  0
 10 38  1  0  0  0
 11 12  1  0  0  0
 11 39  1  0  0  0
 12 40  1  0  0  0
 14 15  2  0  0  0
 14 16  1  0  0  0
 16 17  1  0  0  0
 17 22  2  0  0  0
 17 18  1  0  0  0
 18 19  2  0  0  0
 18 41  1  0  0  0
 19 20  1  0  0  0
 19 42  1  0  0  0
 20 21  2  0  0  0
 20 43  1  0  0  0
 21 22  1  0  0  0
 21 44  1  0  0  0
 22 45  1  0  0  0
 23 24  1  0  0  0
 24 32  1  0  0  0
 24 25  2  0  0  0
 25 29  1  0  0  0
 25 26  1  0  0  0
 26 27  2  0  0  0
 26 30  1  0  0  0
 27 28  1  0  0  0
 28 29  2  0  0  0
 28 46  1  0  0  0
 30 31  2  0  0  0
 31 32  1  0  0  0
 31 47  1  0  0  0
 32 48  1  0  0  0
M  CHG  1  23  -1
M  END
> <s_m_source_file>
/Users/andrea/Development/mcce-charges/epik_inhibitors/output/Idelalisib/Idelalisib-input.mol2

> <i_m_source_file_index>
1

> <r_lp_tautomer_probability>
5.04794885403077e-06

> <r_epik_Ionization_Penalty>
  6.6194

> <r_epik_Ionization_Penalty_Charging>
  3.8540

> <r_epik_Ionization_Penalty_Neutral>
  2.7654

> <r_epik_State_Penalty>
  9.6458

> <i_epik_Tot_Q>
-1

$$$$
5-fluoro-3-phenyl-2-[(1~{S})-1-(1~{H}-purin-6-ylamino)propyl]quinazolin-4-one
                    3D
 Structure written by MMmdl.
 50 54  0  0  1  0            999 V2000
   -5.2169   -5.2027    0.6501 C   0  0  0  0  0  0
   -3.9428   -5.9748    0.3377 C   0  0  0  0  0  0
   -3.5419   -5.8663   -1.1298 C   0  0  1  0  0  0
   -4.3470   -6.3383   -1.7121 H   0  0  0  0  0  0
   -3.2683   -4.4253   -1.5094 C   0  0  0  0  0  0
   -2.3187   -3.8375   -0.8483 N   0  0  0  0  0  0
   -2.0749   -2.4801   -1.0793 C   0  0  0  0  0  0
   -2.8343   -1.7339   -1.9804 C   0  0  0  0  0  0
   -2.5804   -0.3703   -2.1710 C   0  0  0  0  0  0
   -1.5595    0.2509   -1.4530 C   0  0  0  0  0  0
   -0.7949   -0.4854   -0.5514 C   0  0  0  0  0  0
   -1.0526   -1.8443   -0.3653 C   0  0  0  0  0  0
   -3.3014    0.3615   -3.0320 F   0  0  0  0  0  0
   -3.8945   -2.4175   -2.7506 C   0  0  0  0  0  0
   -4.5139   -1.7687   -3.5907 O   0  0  0  0  0  0
   -4.0511   -3.7931   -2.4786 N   0  0  0  0  0  0
   -5.0126   -4.5100   -3.2704 C   0  0  0  0  0  0
   -6.3602   -4.1531   -3.2219 C   0  0  0  0  0  0
   -7.2937   -4.8476   -3.9912 C   0  0  0  0  0  0
   -6.8797   -5.8990   -4.8090 C   0  0  0  0  0  0
   -5.5321   -6.2560   -4.8574 C   0  0  0  0  0  0
   -4.5986   -5.5615   -4.0881 C   0  0  0  0  0  0
   -2.3139   -6.5538   -1.4218 N   0  0  0  0  0  0
   -2.2703   -7.8330   -1.7952 C   0  0  0  0  0  0
   -1.1113   -8.4941   -2.0743 C   0  0  0  0  0  0
   -1.1078   -9.9051   -2.4826 C   0  0  0  0  0  0
    0.1130  -10.2980   -2.6883 N   0  0  0  0  0  0
    0.8509   -9.1521   -2.4137 C   0  0  0  0  0  0
    0.1923   -8.0842   -2.0546 N   0  0  0  0  0  0
   -2.2642  -10.6271   -2.6042 N   0  3  0  0  0  0
   -3.3450   -9.9593   -2.3304 C   0  0  0  0  0  0
   -3.4154   -8.6422   -1.9425 N   0  0  0  0  0  0
   -5.4606   -5.3135    1.7170 H   0  0  0  0  0  0
   -6.0438   -5.5983    0.0420 H   0  0  0  0  0  0
   -5.0670   -4.1382    0.4168 H   0  0  0  0  0  0
   -3.1159   -5.5791    0.9457 H   0  0  0  0  0  0
   -4.0926   -7.0393    0.5709 H   0  0  0  0  0  0
   -1.3773    1.2254   -1.5841 H   0  0  0  0  0  0
   -0.0605   -0.0407   -0.0386 H   0  0  0  0  0  0
   -0.4967   -2.3650    0.2827 H   0  0  0  0  0  0
   -6.6939   -3.3346   -2.5891 H   0  0  0  0  0  0
   -8.3430   -4.5699   -3.9542 H   0  0  0  0  0  0
   -7.6066   -6.4401   -5.4075 H   0  0  0  0  0  0
   -5.2102   -7.0745   -5.4945 H   0  0  0  0  0  0
   -3.5509   -5.8481   -4.1350 H   0  0  0  0  0  0
    0.6255  -11.2222   -2.9936 H   0  0  0  0  0  0
    1.8482   -9.1252   -2.4816 H   0  0  0  0  0  0
   -4.1820  -10.4986   -2.4235 H   0  0  0  0  0  0
   -1.3538   -6.0231   -1.3410 H   0  0  0  0  0  0
   -2.2239  -11.6825   -2.9117 H   0  0  0  0  0  0
  1  2  1  0  0  0
  1 33  1  0  0  0
  1 34  1  0  0  0
  1 35  1  0  0  0
  2  3  1  0  0  0
  2 36  1  0  0  0
  2 37  1  0  0  0
  3  4  1  0  0  0
  3  5  1  0  0  0
  3 23  1  0  0  0
  5 16  1  0  0  0
  5  6  2  0  0  0
  6  7  1  0  0  0
  7 12  2  0  0  0
  7  8  1  0  0  0
  8  9  2  0  0  0
  8 14  1  0  0  0
  9 10  1  0  0  0
  9 13  1  0  0  0
 10 11  2  0  0  0
 10 38  1  0  0  0
 11 12  1  0  0  0
 11 39  1  0  0  0
 12 40  1  0  0  0
 14 15  2  0  0  0
 14 16  1  0  0  0
 16 17  1  0  0  0
 17 22  2  0  0  0
 17 18  1  0  0  0
 18 19  2  0  0  0
 18 41  1  0  0  0
 19 20  1  0  0  0
 19 42  1  0  0  0
 20 21  2  0  0  0
 20 43  1  0  0  0
 21 22  1  0  0  0
 21 44  1  0  0  0
 22 45  1  0  0  0
 23 24  1  0  0  0
 23 49  1  0  0  0
 24 32  1  0  0  0
 24 25  2  0  0  0
 25 29  1  0  0  0
 25 26  1  0  0  0
 26 27  1  0  0  0
 26 30  2  0  0  0
 27 28  1  0  0  0
 27 46  1  0  0  0
 28 29  2  0  0  0
 28 47  1  0  0  0
 30 31  1  0  0  0
 30 50  1  0  0  0
 31 48  1  0  0  0
 31 32  2  0  0  0
M  CHG  1  30   1
M  END
> <s_m_source_file>
/Users/andrea/Development/mcce-charges/epik_inhibitors/output/Idelalisib/Idelalisib-input.mol2

> <i_m_source_file_index>
1

> <r_lp_tautomer_probability>
0.0185207405471662

> <r_epik_Ionization_Penalty>
 19.0528

> <r_epik_Ionization_Penalty_Charging>
 19.0487

> <r_epik_Ionization_Penalty_Neutral>
  0.0040

> <r_epik_State_Penalty>
 10.0077

> <i_epik_Tot_Q>
1

$$$$
5-fluoro-3-phenyl-2-[(1~{S})-1-(1~{H}-purin-6-ylamino)propyl]quinazolin-4-one
                    3D
 Structure written by MMmdl.
 49 53  0  0  1  0            999 V2000
   -5.2180   -5.1996    0.6441 C   0  0  0  0  0  0
   -3.9438   -5.9721    0.3330 C   0  0  0  0  0  0
   -3.5422   -5.8650   -1.1344 C   0  0  1  0  0  0
   -4.3471   -6.3375   -1.7166 H   0  0  0  0  0  0
   -3.2684   -4.4243   -1.5152 C   0  0  0  0  0  0
   -2.3191   -3.8360   -0.8542 N   0  0  0  0  0  0
   -2.0751   -2.4788   -1.0864 C   0  0  0  0  0  0
   -2.8340   -1.7334   -1.9885 C   0  0  0  0  0  0
   -2.5800   -0.3700   -2.1802 C   0  0  0  0  0  0
   -1.5594    0.2518   -1.4623 C   0  0  0  0  0  0
   -0.7952   -0.4837   -0.5597 C   0  0  0  0  0  0
   -1.0530   -1.8424   -0.3725 C   0  0  0  0  0  0
   -3.3006    0.3611   -3.0422 F   0  0  0  0  0  0
   -3.8939   -2.4176   -2.7585 C   0  0  0  0  0  0
   -4.5129   -1.7696   -3.5995 O   0  0  0  0  0  0
   -4.0507   -3.7930   -2.4853 N   0  0  0  0  0  0
   -5.0119   -4.5105   -3.2769 C   0  0  0  0  0  0
   -6.3595   -4.1535   -3.2293 C   0  0  0  0  0  0
   -7.2927   -4.8487   -3.9984 C   0  0  0  0  0  0
   -6.8784   -5.9009   -4.8150 C   0  0  0  0  0  0
   -5.5308   -6.2580   -4.8625 C   0  0  0  0  0  0
   -4.5976   -5.5628   -4.0934 C   0  0  0  0  0  0
   -2.3142   -6.5528   -1.4252 N   0  0  0  0  0  0
   -2.2705   -7.8323   -1.7974 C   0  0  0  0  0  0
   -1.1114   -8.4938   -2.0752 C   0  0  0  0  0  0
   -1.1078   -9.9051   -2.4824 C   0  0  0  0  0  0
    0.1130  -10.2981   -2.6880 N   0  0  0  0  0  0
    0.8509   -9.1523   -2.4128 C   0  0  0  0  0  0
    0.1922   -8.0841   -2.0550 N   0  0  0  0  0  0
   -2.2641  -10.6274   -2.6033 N   0  0  0  0  0  0
   -3.3449   -9.9597   -2.3289 C   0  0  0  0  0  0
   -3.4155   -8.6421   -1.9429 N   0  0  0  0  0  0
   -5.4621   -5.3095    1.7110 H   0  0  0  0  0  0
   -6.0447   -5.5958    0.0361 H   0  0  0  0  0  0
   -5.0679   -4.1353    0.4100 H   0  0  0  0  0  0
   -3.1171   -5.5759    0.9410 H   0  0  0  0  0  0
   -4.0938   -7.0364    0.5671 H   0  0  0  0  0  0
   -1.3770    1.2261   -1.5942 H   0  0  0  0  0  0
   -0.0610   -0.0385   -0.0470 H   0  0  0  0  0  0
   -0.4975   -2.3626    0.2762 H   0  0  0  0  0  0
   -6.6935   -3.3344   -2.5974 H   0  0  0  0  0  0
   -8.3420   -4.5709   -3.9621 H   0  0  0  0  0  0
   -7.6051   -6.4425   -5.4134 H   0  0  0  0  0  0
   -5.2087   -7.0771   -5.4987 H   0  0  0  0  0  0
   -3.5499   -5.8495   -4.1396 H   0  0  0  0  0  0
    0.4393   -7.0494   -1.7750 H   0  0  0  0  0  0
    1.8476   -9.1684   -2.4925 H   0  0  0  0  0  0
   -4.2376  -10.4062   -2.3904 H   0  0  0  0  0  0
   -4.3925   -8.1816   -1.7346 H   0  0  0  0  0  0
  1  2  1  0  0  0
  1 33  1  0  0  0
  1 34  1  0  0  0
  1 35  1  0  0  0
  2  3  1  0  0  0
  2 36  1  0  0  0
  2 37  1  0  0  0
  3  4  1  0  0  0
  3  5  1  0  0  0
  3 23  1  0  0  0
  5 16  1  0  0  0
  5  6  2  0  0  0
  6  7  1  0  0  0
  7 12  2  0  0  0
  7  8  1  0  0  0
  8  9  2  0  0  0
  8 14  1  0  0  0
  9 10  1  0  0  0
  9 13  1  0  0  0
 10 11  2  0  0  0
 10 38  1  0  0  0
 11 12  1  0  0  0
 11 39  1  0  0  0
 12 40  1  0  0  0
 14 15  2  0  0  0
 14 16  1  0  0  0
 16 17  1  0  0  0
 17 22  2  0  0  0
 17 18  1  0  0  0
 18 19  2  0  0  0
 18 41  1  0  0  0
 19 20  1  0  0  0
 19 42  1  0  0  0
 20 21  2  0  0  0
 20 43  1  0  0  0
 21 22  1  0  0  0
 21 44  1  0  0  0
 22 45  1  0  0  0
 23 24  2  0  0  0
 24 32  1  0  0  0
 24 25  1  0  0  0
 25 29  1  0  0  0
 25 26  2  0  0  0
 26 27  1  0  0  0
 26 30  1  0  0  0
 27 28  2  0  0  0
 28 29  1  0  0  0
 28 47  1  0  0  0
 29 46  1  0  0  0
 30 31  2  0  0  0
 31 48  1  0  0  0
 31 32  1  0  0  0
 32 49  1  0  0  0
M  END
> <s_m_source_file>
/Users/andrea/Development/mcce-charges/epik_inhibitors/output/Idelalisib/Idelalisib-input.mol2

> <i_m_source_file_index>
1

> <r_lp_tautomer_probability>
2.75594732866225e-07

> <r_epik_Ionization_Penalty>
  6.0849

> <r_epik_Ionization_Penalty_Charging>
  3.1447

> <r_epik_Ionization_Penalty_Neutral>
  2.9402

> <r_epik_State_Penalty>
 10.1172

> <i_epik_Tot_Q>
0

$$$$
5-fluoro-3-phenyl-2-[(1~{S})-1-(1~{H}-purin-6-ylamino)propyl]quinazolin-4-one
                    3D
 Structure written by MMmdl.
 49 53  0  0  1  0            999 V2000
    0.4604   -4.1220   -2.3937 C   0  0  0  0  0  0
   -0.7568   -5.0193   -2.5684 C   0  0  0  0  0  0
   -1.1374   -5.7406   -1.2797 C   0  0  1  0  0  0
   -0.2939   -6.3997   -1.0266 H   0  0  0  0  0  0
   -1.4943   -4.7488   -0.1913 C   0  0  0  0  0  0
   -2.4907   -3.9590   -0.4514 N   0  0  0  0  0  0
   -2.8153   -2.9561    0.4674 C   0  0  0  0  0  0
   -2.0884   -2.7641    1.6422 C   0  0  0  0  0  0
   -2.4241   -1.7348    2.5299 C   0  0  0  0  0  0
   -3.4948   -0.8908    2.2384 C   0  0  0  0  0  0
   -4.2276   -1.0745    1.0684 C   0  0  0  0  0  0
   -3.8883   -2.1020    0.1870 C   0  0  0  0  0  0
   -1.7353   -1.5358    3.6624 F   0  0  0  0  0  0
   -0.9736   -3.6861    1.9449 C   0  0  0  0  0  0
   -0.3814   -3.5521    3.0134 O   0  0  0  0  0  0
   -0.7357   -4.6879    0.9802 N   0  0  0  0  0  0
    0.2831   -5.6557    1.2816 C   0  0  0  0  0  0
    1.6045   -5.2448    1.4573 C   0  0  0  0  0  0
    2.5935   -6.1836    1.7511 C   0  0  0  0  0  0
    2.2612   -7.5331    1.8691 C   0  0  0  0  0  0
    0.9398   -7.9440    1.6932 C   0  0  0  0  0  0
   -0.0492   -7.0053    1.3994 C   0  0  0  0  0  0
   -2.3142   -6.5528   -1.4252 N   0  0  0  0  0  0
   -2.2705   -7.8323   -1.7974 C   0  0  0  0  0  0
   -1.1114   -8.4938   -2.0752 C   0  0  0  0  0  0
   -1.1078   -9.9051   -2.4824 C   0  0  0  0  0  0
    0.1130  -10.2981   -2.6880 N   0  0  0  0  0  0
    0.8509   -9.1523   -2.4128 C   0  0  0  0  0  0
    0.1922   -8.0841   -2.0550 N   0  0  0  0  0  0
   -2.2641  -10.6274   -2.6033 N   0  0  0  0  0  0
   -3.3449   -9.9597   -2.3289 C   0  0  0  0  0  0
   -3.4155   -8.6421   -1.9429 N   0  0  0  0  0  0
    0.6914   -3.6274   -3.3488 H   0  0  0  0  0  0
    1.3213   -4.7293   -2.0777 H   0  0  0  0  0  0
    0.2480   -3.3608   -1.6286 H   0  0  0  0  0  0
   -1.6177   -4.4119   -2.8845 H   0  0  0  0  0  0
   -0.5445   -5.7805   -3.3335 H   0  0  0  0  0  0
   -3.7356   -0.1526    2.8685 H   0  0  0  0  0  0
   -4.9976   -0.4712    0.8607 H   0  0  0  0  0  0
   -4.4218   -2.2273   -0.6494 H   0  0  0  0  0  0
    1.8747   -4.1955    1.3689 H   0  0  0  0  0  0
    3.6224   -5.8642    1.8885 H   0  0  0  0  0  0
    3.0314   -8.2640    2.0973 H   0  0  0  0  0  0
    0.6816   -8.9948    1.7854 H   0  0  0  0  0  0
   -1.0757   -7.3373    1.2656 H   0  0  0  0  0  0
    0.4393   -7.0494   -1.7750 H   0  0  0  0  0  0
    1.8476   -9.1684   -2.4925 H   0  0  0  0  0  0
   -4.2376  -10.4062   -2.3904 H   0  0  0  0  0  0
   -4.3925   -8.1816   -1.7346 H   0  0  0  0  0  0
  1  2  1  0  0  0
  1 33  1  0  0  0
  1 34  1  0  0  0
  1 35  1  0  0  0
  2  3  1  0  0  0
  2 36  1  0  0  0
  2 37  1  0  0  0
  3  4  1  0  0  0
  3  5  1  0  0  0
  3 23  1  0  0  0
  5 16  1  0  0  0
  5  6  2  0  0  0
  6  7  1  0  0  0
  7 12  2  0  0  0
  7  8  1  0  0  0
  8  9  2  0  0  0
  8 14  1  0  0  0
  9 10  1  0  0  0
  9 13  1  0  0  0
 10 11  2  0  0  0
 10 38  1  0  0  0
 11 12  1  0  0  0
 11 39  1  0  0  0
 12 40  1  0  0  0
 14 15  2  0  0  0
 14 16  1  0  0  0
 16 17  1  0  0  0
 17 22  2  0  0  0
 17 18  1  0  0  0
 18 19  2  0  0  0
 18 41  1  0  0  0
 19 20  1  0  0  0
 19 42  1  0  0  0
 20 21  2  0  0  0
 20 43  1  0  0  0
 21 22  1  0  0  0
 21 44  1  0  0  0
 22 45  1  0  0  0
 23 24  2  0  0  0
 24 32  1  0  0  0
 24 25  1  0  0  0
 25 29  1  0  0  0
 25 26  2  0  0  0
 26 27  1  0  0  0
 26 30  1  0  0  0
 27 28  2  0  0  0
 28 29  1  0  0  0
 28 47  1  0  0  0
 29 46  1  0  0  0
 30 31  2  0  0  0
 31 48  1  0  0  0
 31 32  1  0  0  0
 32 49  1  0  0  0
M  END
> <s_m_source_file>
/Users/andrea/Development/mcce-charges/epik_inhibitors/output/Idelalisib/Idelalisib-input.mol2

> <i_m_source_file_index>
1

> <r_lp_tautomer_probability>
2.75594732866225e-07

> <r_epik_Ionization_Penalty>
  6.0849

> <r_epik_Ionization_Penalty_Charging>
  3.1447

> <r_epik_Ionization_Penalty_Neutral>
  2.9402

> <r_epik_State_Penalty>
 10.1172

> <i_epik_Tot_Q>
0

$$$$
5-fluoro-3-phenyl-2-[(1~{S})-1-(1~{H}-purin-6-ylamino)propyl]quinazolin-4-one
                    3D
 Structure written by MMmdl.
 49 53  0  0  1  0            999 V2000
   -5.2169   -5.2027    0.6501 C   0  0  0  0  0  0
   -3.9428   -5.9748    0.3377 C   0  0  0  0  0  0
   -3.5419   -5.8663   -1.1298 C   0  0  1  0  0  0
   -4.3470   -6.3383   -1.7121 H   0  0  0  0  0  0
   -3.2683   -4.4253   -1.5094 C   0  0  0  0  0  0
   -2.3187   -3.8375   -0.8483 N   0  0  0  0  0  0
   -2.0749   -2.4801   -1.0793 C   0  0  0  0  0  0
   -2.8343   -1.7339   -1.9804 C   0  0  0  0  0  0
   -2.5804   -0.3703   -2.1710 C   0  0  0  0  0  0
   -1.5595    0.2509   -1.4530 C   0  0  0  0  0  0
   -0.7949   -0.4854   -0.5514 C   0  0  0  0  0  0
   -1.0526   -1.8443   -0.3653 C   0  0  0  0  0  0
   -3.3014    0.3615   -3.0320 F   0  0  0  0  0  0
   -3.8945   -2.4175   -2.7506 C   0  0  0  0  0  0
   -4.5139   -1.7687   -3.5907 O   0  0  0  0  0  0
   -4.0511   -3.7931   -2.4786 N   0  3  0  0  0  0
   -5.0126   -4.5100   -3.2704 C   0  0  0  0  0  0
   -6.3602   -4.1531   -3.2219 C   0  0  0  0  0  0
   -7.2937   -4.8476   -3.9912 C   0  0  0  0  0  0
   -6.8797   -5.8990   -4.8090 C   0  0  0  0  0  0
   -5.5321   -6.2560   -4.8574 C   0  0  0  0  0  0
   -4.5986   -5.5615   -4.0881 C   0  0  0  0  0  0
   -2.3139   -6.5538   -1.4218 N   0  0  0  0  0  0
   -2.2703   -7.8330   -1.7952 C   0  0  0  0  0  0
   -1.1113   -8.4941   -2.0743 C   0  0  0  0  0  0
   -1.1078   -9.9051   -2.4826 C   0  0  0  0  0  0
    0.1130  -10.2980   -2.6883 N   0  5  0  0  0  0
    0.8509   -9.1521   -2.4137 C   0  0  0  0  0  0
    0.1923   -8.0842   -2.0546 N   0  0  0  0  0  0
   -2.2642  -10.6271   -2.6042 N   0  0  0  0  0  0
   -3.3450   -9.9593   -2.3304 C   0  0  0  0  0  0
   -3.4154   -8.6422   -1.9425 N   0  0  0  0  0  0
   -5.4606   -5.3135    1.7170 H   0  0  0  0  0  0
   -6.0438   -5.5983    0.0420 H   0  0  0  0  0  0
   -5.0670   -4.1382    0.4168 H   0  0  0  0  0  0
   -3.1159   -5.5791    0.9457 H   0  0  0  0  0  0
   -4.0926   -7.0393    0.5709 H   0  0  0  0  0  0
   -1.3773    1.2254   -1.5841 H   0  0  0  0  0  0
   -0.0605   -0.0407   -0.0386 H   0  0  0  0  0  0
   -0.4967   -2.3650    0.2827 H   0  0  0  0  0  0
   -6.6939   -3.3346   -2.5891 H   0  0  0  0  0  0
   -8.3430   -4.5699   -3.9542 H   0  0  0  0  0  0
   -7.6066   -6.4401   -5.4075 H   0  0  0  0  0  0
   -5.2102   -7.0745   -5.4945 H   0  0  0  0  0  0
   -3.5509   -5.8481   -4.1350 H   0  0  0  0  0  0
    1.8482   -9.1252   -2.4816 H   0  0  0  0  0  0
   -4.1820  -10.4986   -2.4235 H   0  0  0  0  0  0
   -1.3538   -6.0231   -1.3410 H   0  0  0  0  0  0
   -1.7215   -4.4065   -0.1206 H   0  0  0  0  0  0
  1  2  1  0  0  0
  1 33  1  0  0  0
  1 34  1  0  0  0
  1 35  1  0  0  0
  2  3  1  0  0  0
  2 36  1  0  0  0
  2 37  1  0  0  0
  3  4  1  0  0  0
  3  5  1  0  0  0
  3 23  1  0  0  0
  5 16  2  0  0  0
  5  6  1  0  0  0
  6  7  1  0  0  0
  6 49  1  0  0  0
  7 12  2  0  0  0
  7  8  1  0  0  0
  8  9  2  0  0  0
  8 14  1  0  0  0
  9 10  1  0  0  0
  9 13  1  0  0  0
 10 11  2  0  0  0
 10 38  1  0  0  0
 11 12  1  0  0  0
 11 39  1  0  0  0
 12 40  1  0  0  0
 14 15  2  0  0  0
 14 16  1  0  0  0
 16 17  1  0  0  0
 17 22  2  0  0  0
 17 18  1  0  0  0
 18 19  2  0  0  0
 18 41  1  0  0  0
 19 20  1  0  0  0
 19 42  1  0  0  0
 20 21  2  0  0  0
 20 43  1  0  0  0
 21 22  1  0  0  0
 21 44  1  0  0  0
 22 45  1  0  0  0
 23 24  1  0  0  0
 23 48  1  0  0  0
 24 32  1  0  0  0
 24 25  2  0  0  0
 25 29  1  0  0  0
 25 26  1  0  0  0
 26 27  1  0  0  0
 26 30  2  0  0  0
 27 28  1  0  0  0
 28 29  2  0  0  0
 28 46  1  0  0  0
 30 31  1  0  0  0
 31 47  1  0  0  0
 31 32  2  0  0  0
M  CHG  2  16   1  27  -1
M  END
> <s_m_source_file>
/Users/andrea/Development/mcce-charges/epik_inhibitors/output/Idelalisib/Idelalisib-input.mol2

> <i_m_source_file_index>
1

> <r_epik_Ionization_Penalty>
 13.7310

> <r_epik_Ionization_Penalty_Charging>
  9.8852

> <r_epik_Ionization_Penalty_Neutral>
  3.8458

> <r_epik_State_Penalty>
 10.4004

> <i_epik_Tot_Q>
0

$$$$
5-fluoro-3-phenyl-2-[(1~{S})-1-(1~{H}-purin-6-ylamino)propyl]quinazolin-4-one
                    3D
 Structure written by MMmdl.
 48 52  0  0  1  0            999 V2000
   -5.2169   -5.2027    0.6501 C   0  0  0  0  0  0
   -3.9428   -5.9748    0.3377 C   0  0  0  0  0  0
   -3.5419   -5.8663   -1.1298 C   0  0  1  0  0  0
   -4.3470   -6.3383   -1.7121 H   0  0  0  0  0  0
   -3.2683   -4.4253   -1.5094 C   0  0  0  0  0  0
   -2.3187   -3.8375   -0.8483 N   0  0  0  0  0  0
   -2.0749   -2.4801   -1.0793 C   0  0  0  0  0  0
   -2.8343   -1.7339   -1.9804 C   0  0  0  0  0  0
   -2.5804   -0.3703   -2.1710 C   0  0  0  0  0  0
   -1.5595    0.2509   -1.4530 C   0  0  0  0  0  0
   -0.7949   -0.4854   -0.5514 C   0  0  0  0  0  0
   -1.0526   -1.8443   -0.3653 C   0  0  0  0  0  0
   -3.3014    0.3615   -3.0320 F   0  0  0  0  0  0
   -3.8945   -2.4175   -2.7506 C   0  0  0  0  0  0
   -4.5139   -1.7687   -3.5907 O   0  0  0  0  0  0
   -4.0511   -3.7931   -2.4786 N   0  0  0  0  0  0
   -5.0126   -4.5100   -3.2704 C   0  0  0  0  0  0
   -6.3602   -4.1531   -3.2219 C   0  0  0  0  0  0
   -7.2937   -4.8476   -3.9912 C   0  0  0  0  0  0
   -6.8797   -5.8990   -4.8090 C   0  0  0  0  0  0
   -5.5321   -6.2560   -4.8574 C   0  0  0  0  0  0
   -4.5986   -5.5615   -4.0881 C   0  0  0  0  0  0
   -2.3139   -6.5538   -1.4218 N   0  5  0  0  0  0
   -2.2703   -7.8330   -1.7952 C   0  0  0  0  0  0
   -1.1113   -8.4941   -2.0743 C   0  0  0  0  0  0
   -1.1078   -9.9051   -2.4826 C   0  0  0  0  0  0
    0.1130  -10.2980   -2.6883 N   0  0  0  0  0  0
    0.8509   -9.1521   -2.4137 C   0  0  0  0  0  0
    0.1923   -8.0842   -2.0546 N   0  0  0  0  0  0
   -2.2642  -10.6271   -2.6042 N   0  0  0  0  0  0
   -3.3450   -9.9593   -2.3304 C   0  0  0  0  0  0
   -3.4154   -8.6422   -1.9425 N   0  0  0  0  0  0
   -5.4606   -5.3135    1.7170 H   0  0  0  0  0  0
   -6.0438   -5.5983    0.0420 H   0  0  0  0  0  0
   -5.0670   -4.1382    0.4168 H   0  0  0  0  0  0
   -3.1159   -5.5791    0.9457 H   0  0  0  0  0  0
   -4.0926   -7.0393    0.5709 H   0  0  0  0  0  0
   -1.3773    1.2254   -1.5841 H   0  0  0  0  0  0
   -0.0605   -0.0407   -0.0386 H   0  0  0  0  0  0
   -0.4967   -2.3650    0.2827 H   0  0  0  0  0  0
   -6.6939   -3.3346   -2.5891 H   0  0  0  0  0  0
   -8.3430   -4.5699   -3.9542 H   0  0  0  0  0  0
   -7.6066   -6.4401   -5.4075 H   0  0  0  0  0  0
   -5.2102   -7.0745   -5.4945 H   0  0  0  0  0  0
   -3.5509   -5.8481   -4.1350 H   0  0  0  0  0  0
    0.4394   -7.0497   -1.7739 H   0  0  0  0  0  0
    1.8475   -9.1680   -2.4940 H   0  0  0  0  0  0
   -4.1820  -10.4986   -2.4235 H   0  0  0  0  0  0
  1  2  1  0  0  0
  1 33  1  0  0  0
  1 34  1  0  0  0
  1 35  1  0  0  0
  2  3  1  0  0  0
  2 36  1  0  0  0
  2 37  1  0  0  0
  3  4  1  0  0  0
  3  5  1  0  0  0
  3 23  1  0  0  0
  5 16  1  0  0  0
  5  6  2  0  0  0
  6  7  1  0  0  0
  7 12  2  0  0  0
  7  8  1  0  0  0
  8  9  2  0  0  0
  8 14  1  0  0  0
  9 10  1  0  0  0
  9 13  1  0  0  0
 10 11  2  0  0  0
 10 38  1  0  0  0
 11 12  1  0  0  0
 11 39  1  0  0  0
 12 40  1  0  0  0
 14 15  2  0  0  0
 14 16  1  0  0  0
 16 17  1  0  0  0
 17 22  2  0  0  0
 17 18  1  0  0  0
 18 19  2  0  0  0
 18 41  1  0  0  0
 19 20  1  0  0  0
 19 42  1  0  0  0
 20 21  2  0  0  0
 20 43  1  0  0  0
 21 22  1  0  0  0
 21 44  1  0  0  0
 22 45  1  0  0  0
 23 24  1  0  0  0
 24 32  1  0  0  0
 24 25  2  0  0  0
 25 29  1  0  0  0
 25 26  1  0  0  0
 26 27  1  0  0  0
 26 30  2  0  0  0
 27 28  2  0  0  0
 28 29  1  0  0  0
 28 47  1  0  0  0
 29 46  1  0  0  0
 30 31  1  0  0  0
 31 48  1  0  0  0
 31 32  2  0  0  0
M  CHG  1  23  -1
M  END
> <s_m_source_file>
/Users/andrea/Development/mcce-charges/epik_inhibitors/output/Idelalisib/Idelalisib-input.mol2

> <i_m_source_file_index>
1

> <r_lp_tautomer_probability>
4.86895066764576e-09

> <r_epik_Ionization_Penalty>
  8.7050

> <r_epik_Ionization_Penalty_Charging>
  8.6882

> <r_epik_Ionization_Penalty_Neutral>
  0.0168

> <r_epik_State_Penalty>
 10.5832

> <i_epik_Tot_Q>
-1

$$$$
5-fluoro-3-phenyl-2-[(1~{S})-1-(1~{H}-purin-6-ylamino)propyl]quinazolin-4-one
                    3D
 Structure written by MMmdl.
 48 52  0  0  1  0            999 V2000
    0.4604   -4.1220   -2.3937 C   0  0  0  0  0  0
   -0.7568   -5.0193   -2.5684 C   0  0  0  0  0  0
   -1.1374   -5.7406   -1.2797 C   0  0  1  0  0  0
   -0.2939   -6.3997   -1.0266 H   0  0  0  0  0  0
   -1.4943   -4.7488   -0.1913 C   0  0  0  0  0  0
   -2.4907   -3.9590   -0.4514 N   0  0  0  0  0  0
   -2.8153   -2.9561    0.4674 C   0  0  0  0  0  0
   -2.0884   -2.7641    1.6422 C   0  0  0  0  0  0
   -2.4241   -1.7348    2.5299 C   0  0  0  0  0  0
   -3.4948   -0.8908    2.2384 C   0  0  0  0  0  0
   -4.2276   -1.0745    1.0684 C   0  0  0  0  0  0
   -3.8883   -2.1020    0.1870 C   0  0  0  0  0  0
   -1.7353   -1.5358    3.6624 F   0  0  0  0  0  0
   -0.9736   -3.6861    1.9449 C   0  0  0  0  0  0
   -0.3814   -3.5521    3.0134 O   0  0  0  0  0  0
   -0.7357   -4.6879    0.9802 N   0  0  0  0  0  0
    0.2831   -5.6557    1.2816 C   0  0  0  0  0  0
    1.6045   -5.2448    1.4573 C   0  0  0  0  0  0
    2.5935   -6.1836    1.7511 C   0  0  0  0  0  0
    2.2612   -7.5331    1.8691 C   0  0  0  0  0  0
    0.9398   -7.9440    1.6932 C   0  0  0  0  0  0
   -0.0492   -7.0053    1.3994 C   0  0  0  0  0  0
   -2.3142   -6.5528   -1.4252 N   0  0  0  0  0  0
   -2.2705   -7.8323   -1.7974 C   0  0  0  0  0  0
   -1.1114   -8.4938   -2.0752 C   0  0  0  0  0  0
   -1.1078   -9.9051   -2.4824 C   0  0  0  0  0  0
    0.1130  -10.2981   -2.6880 N   0  0  0  0  0  0
    0.8509   -9.1523   -2.4128 C   0  0  0  0  0  0
    0.1922   -8.0841   -2.0550 N   0  0  0  0  0  0
   -2.2641  -10.6274   -2.6033 N   0  0  0  0  0  0
   -3.3449   -9.9597   -2.3289 C   0  0  0  0  0  0
   -3.4155   -8.6421   -1.9429 N   0  5  0  0  0  0
    0.6914   -3.6274   -3.3488 H   0  0  0  0  0  0
    1.3213   -4.7293   -2.0777 H   0  0  0  0  0  0
    0.2480   -3.3608   -1.6286 H   0  0  0  0  0  0
   -1.6177   -4.4119   -2.8845 H   0  0  0  0  0  0
   -0.5445   -5.7805   -3.3335 H   0  0  0  0  0  0
   -3.7356   -0.1526    2.8685 H   0  0  0  0  0  0
   -4.9976   -0.4712    0.8607 H   0  0  0  0  0  0
   -4.4218   -2.2273   -0.6494 H   0  0  0  0  0  0
    1.8747   -4.1955    1.3689 H   0  0  0  0  0  0
    3.6224   -5.8642    1.8885 H   0  0  0  0  0  0
    3.0314   -8.2640    2.0973 H   0  0  0  0  0  0
    0.6816   -8.9948    1.7854 H   0  0  0  0  0  0
   -1.0757   -7.3373    1.2656 H   0  0  0  0  0  0
    0.6256  -11.2222   -2.9934 H   0  0  0  0  0  0
    1.8483   -9.1256   -2.4802 H   0  0  0  0  0  0
   -4.2376  -10.4062   -2.3904 H   0  0  0  0  0  0
  1  2  1  0  0  0
  1 33  1  0  0  0
  1 34  1  0  0  0
  1 35  1  0  0  0
  2  3  1  0  0  0
  2 36  1  0  0  0
  2 37  1  0  0  0
  3  4  1  0  0  0
  3  5  1  0  0  0
  3 23  1  0  0  0
  5 16  1  0  0  0
  5  6  2  0  0  0
  6  7  1  0  0  0
  7 12  2  0  0  0
  7  8  1  0  0  0
  8  9  2  0  0  0
  8 14  1  0  0  0
  9 10  1  0  0  0
  9 13  1  0  0  0
 10 11  2  0  0  0
 10 38  1  0  0  0
 11 12  1  0  0  0
 11 39  1  0  0  0
 12 40  1  0  0  0
 14 15  2  0  0  0
 14 16  1  0  0  0
 16 17  1  0  0  0
 17 22  2  0  0  0
 17 18  1  0  0  0
 18 19  2  0  0  0
 18 41  1  0  0  0
 19 20  1  0  0  0
 19 42  1  0  0  0
 20 21  2  0  0  0
 20 43  1  0  0  0
 21 22  1  0  0  0
 21 44  1  0  0  0
 22 45  1  0  0  0
 23 24  2  0  0  0
 24 32  1  0  0  0
 24 25  1  0  0  0
 25 29  1  0  0  0
 25 26  2  0  0  0
 26 27  1  0  0  0
 26 30  1  0  0  0
 27 28  1  0  0  0
 27 46  1  0  0  0
 28 29  2  0  0  0
 28 47  1  0  0  0
 30 31  2  0  0  0
 31 48  1  0  0  0
 31 32  1  0  0  0
M  CHG  1  32  -1
M  END
> <s_m_source_file>
/Users/andrea/Development/mcce-charges/epik_inhibitors/output/Idelalisib/Idelalisib-input.mol2

> <i_m_source_file_index>
1

> <r_lp_tautomer_probability>
9.82390046394578e-09

> <r_epik_Ionization_Penalty>
  6.6111

> <r_epik_Ionization_Penalty_Charging>
  6.6109

> <r_epik_Ionization_Penalty_Neutral>
  0.0002

> <r_epik_State_Penalty>
 10.8419

> <i_epik_Tot_Q>
-1

$$$$
5-fluoro-3-phenyl-2-[(1~{S})-1-(1~{H}-purin-6-ylamino)propyl]quinazolin-4-one
                    3D
 Structure written by MMmdl.
 48 52  0  0  1  0            999 V2000
   -5.2180   -5.1996    0.6441 C   0  0  0  0  0  0
   -3.9438   -5.9721    0.3330 C   0  0  0  0  0  0
   -3.5422   -5.8650   -1.1344 C   0  0  1  0  0  0
   -4.3471   -6.3375   -1.7166 H   0  0  0  0  0  0
   -3.2684   -4.4243   -1.5152 C   0  0  0  0  0  0
   -2.3191   -3.8360   -0.8542 N   0  0  0  0  0  0
   -2.0751   -2.4788   -1.0864 C   0  0  0  0  0  0
   -2.8340   -1.7334   -1.9885 C   0  0  0  0  0  0
   -2.5800   -0.3700   -2.1802 C   0  0  0  0  0  0
   -1.5594    0.2518   -1.4623 C   0  0  0  0  0  0
   -0.7952   -0.4837   -0.5597 C   0  0  0  0  0  0
   -1.0530   -1.8424   -0.3725 C   0  0  0  0  0  0
   -3.3006    0.3611   -3.0422 F   0  0  0  0  0  0
   -3.8939   -2.4176   -2.7585 C   0  0  0  0  0  0
   -4.5129   -1.7696   -3.5995 O   0  0  0  0  0  0
   -4.0507   -3.7930   -2.4853 N   0  0  0  0  0  0
   -5.0119   -4.5105   -3.2769 C   0  0  0  0  0  0
   -6.3595   -4.1535   -3.2293 C   0  0  0  0  0  0
   -7.2927   -4.8487   -3.9984 C   0  0  0  0  0  0
   -6.8784   -5.9009   -4.8150 C   0  0  0  0  0  0
   -5.5308   -6.2580   -4.8625 C   0  0  0  0  0  0
   -4.5976   -5.5628   -4.0934 C   0  0  0  0  0  0
   -2.3142   -6.5528   -1.4252 N   0  0  0  0  0  0
   -2.2705   -7.8323   -1.7974 C   0  0  0  0  0  0
   -1.1114   -8.4938   -2.0752 C   0  0  0  0  0  0
   -1.1078   -9.9051   -2.4824 C   0  0  0  0  0  0
    0.1130  -10.2981   -2.6880 N   0  0  0  0  0  0
    0.8509   -9.1523   -2.4128 C   0  0  0  0  0  0
    0.1922   -8.0841   -2.0550 N   0  0  0  0  0  0
   -2.2641  -10.6274   -2.6033 N   0  0  0  0  0  0
   -3.3449   -9.9597   -2.3289 C   0  0  0  0  0  0
   -3.4155   -8.6421   -1.9429 N   0  5  0  0  0  0
   -5.4621   -5.3095    1.7110 H   0  0  0  0  0  0
   -6.0447   -5.5958    0.0361 H   0  0  0  0  0  0
   -5.0679   -4.1353    0.4100 H   0  0  0  0  0  0
   -3.1171   -5.5759    0.9410 H   0  0  0  0  0  0
   -4.0938   -7.0364    0.5671 H   0  0  0  0  0  0
   -1.3770    1.2261   -1.5942 H   0  0  0  0  0  0
   -0.0610   -0.0385   -0.0470 H   0  0  0  0  0  0
   -0.4975   -2.3626    0.2762 H   0  0  0  0  0  0
   -6.6935   -3.3344   -2.5974 H   0  0  0  0  0  0
   -8.3420   -4.5709   -3.9621 H   0  0  0  0  0  0
   -7.6051   -6.4425   -5.4134 H   0  0  0  0  0  0
   -5.2087   -7.0771   -5.4987 H   0  0  0  0  0  0
   -3.5499   -5.8495   -4.1396 H   0  0  0  0  0  0
    0.6256  -11.2222   -2.9934 H   0  0  0  0  0  0
    1.8483   -9.1256   -2.4802 H   0  0  0  0  0  0
   -4.2376  -10.4062   -2.3904 H   0  0  0  0  0  0
  1  2  1  0  0  0
  1 33  1  0  0  0
  1 34  1  0  0  0
  1 35  1  0  0  0
  2  3  1  0  0  0
  2 36  1  0  0  0
  2 37  1  0  0  0
  3  4  1  0  0  0
  3  5  1  0  0  0
  3 23  1  0  0  0
  5 16  1  0  0  0
  5  6  2  0  0  0
  6  7  1  0  0  0
  7 12  2  0  0  0
  7  8  1  0  0  0
  8  9  2  0  0  0
  8 14  1  0  0  0
  9 10  1  0  0  0
  9 13  1  0  0  0
 10 11  2  0  0  0
 10 38  1  0  0  0
 11 12  1  0  0  0
 11 39  1  0  0  0
 12 40  1  0  0  0
 14 15  2  0  0  0
 14 16  1  0  0  0
 16 17  1  0  0  0
 17 22  2  0  0  0
 17 18  1  0  0  0
 18 19  2  0  0  0
 18 41  1  0  0  0
 19 20  1  0  0  0
 19 42  1  0  0  0
 20 21  2  0  0  0
 20 43  1  0  0  0
 21 22  1  0  0  0
 21 44  1  0  0  0
 22 45  1  0  0  0
 23 24  2  0  0  0
 24 32  1  0  0  0
 24 25  1  0  0  0
 25 29  1  0  0  0
 25 26  2  0  0  0
 26 27  1  0  0  0
 26 30  1  0  0  0
 27 28  1  0  0  0
 27 46  1  0  0  0
 28 29  2  0  0  0
 28 47  1  0  0  0
 30 31  2  0  0  0
 31 48  1  0  0  0
 31 32  1  0  0  0
M  CHG  1  32  -1
M  END
> <s_m_source_file>
/Users/andrea/Development/mcce-charges/epik_inhibitors/output/Idelalisib/Idelalisib-input.mol2

> <i_m_source_file_index>
1

> <r_lp_tautomer_probability>
9.82390046394578e-09

> <r_epik_Ionization_Penalty>
  6.6111

> <r_epik_Ionization_Penalty_Charging>
  6.6109

> <r_epik_Ionization_Penalty_Neutral>
  0.0002

> <r_epik_State_Penalty>
 10.8525

> <i_epik_Tot_Q>
-1

$$$$
5-fluoro-3-phenyl-2-[(1~{S})-1-(1~{H}-purin-6-ylamino)propyl]quinazolin-4-one
                    3D
 Structure written by MMmdl.
 50 54  0  0  1  0            999 V2000
   -5.2180   -5.1996    0.6441 C   0  0  0  0  0  0
   -3.9438   -5.9721    0.3330 C   0  0  0  0  0  0
   -3.5422   -5.8650   -1.1344 C   0  0  1  0  0  0
   -4.3471   -6.3375   -1.7166 H   0  0  0  0  0  0
   -3.2684   -4.4243   -1.5152 C   0  0  0  0  0  0
   -2.3191   -3.8360   -0.8542 N   0  0  0  0  0  0
   -2.0751   -2.4788   -1.0864 C   0  0  0  0  0  0
   -2.8340   -1.7334   -1.9885 C   0  0  0  0  0  0
   -2.5800   -0.3700   -2.1802 C   0  0  0  0  0  0
   -1.5594    0.2518   -1.4623 C   0  0  0  0  0  0
   -0.7952   -0.4837   -0.5597 C   0  0  0  0  0  0
   -1.0530   -1.8424   -0.3725 C   0  0  0  0  0  0
   -3.3006    0.3611   -3.0422 F   0  0  0  0  0  0
   -3.8939   -2.4176   -2.7585 C   0  0  0  0  0  0
   -4.5129   -1.7696   -3.5995 O   0  0  0  0  0  0
   -4.0507   -3.7930   -2.4853 N   0  3  0  0  0  0
   -5.0119   -4.5105   -3.2769 C   0  0  0  0  0  0
   -6.3595   -4.1535   -3.2293 C   0  0  0  0  0  0
   -7.2927   -4.8487   -3.9984 C   0  0  0  0  0  0
   -6.8784   -5.9009   -4.8150 C   0  0  0  0  0  0
   -5.5308   -6.2580   -4.8625 C   0  0  0  0  0  0
   -4.5976   -5.5628   -4.0934 C   0  0  0  0  0  0
   -2.3142   -6.5528   -1.4252 N   0  0  0  0  0  0
   -2.2705   -7.8323   -1.7974 C   0  0  0  0  0  0
   -1.1114   -8.4938   -2.0754 C   0  0  0  0  0  0
   -1.1078   -9.9051   -2.4826 C   0  0  0  0  0  0
    0.1130  -10.2980   -2.6883 N   0  0  0  0  0  0
    0.8509   -9.1522   -2.4133 C   0  0  0  0  0  0
    0.1922   -8.0840   -2.0554 N   0  0  0  0  0  0
   -2.2642  -10.6271   -2.6042 N   0  0  0  0  0  0
   -3.3450   -9.9593   -2.3304 C   0  0  0  0  0  0
   -3.4156   -8.6416   -1.9447 N   0  0  0  0  0  0
   -5.4621   -5.3095    1.7110 H   0  0  0  0  0  0
   -6.0447   -5.5958    0.0361 H   0  0  0  0  0  0
   -5.0679   -4.1353    0.4100 H   0  0  0  0  0  0
   -3.1171   -5.5759    0.9410 H   0  0  0  0  0  0
   -4.0938   -7.0364    0.5671 H   0  0  0  0  0  0
   -1.3617    1.3100   -1.6059 H   0  0  0  0  0  0
    0.0023   -0.0008   -0.0026 H   0  0  0  0  0  0
   -0.4468   -2.4048    0.3338 H   0  0  0  0  0  0
   -6.6935   -3.3344   -2.5974 H   0  0  0  0  0  0
   -8.3420   -4.5709   -3.9621 H   0  0  0  0  0  0
   -7.6051   -6.4425   -5.4134 H   0  0  0  0  0  0
   -5.2087   -7.0771   -5.4987 H   0  0  0  0  0  0
   -3.5499   -5.8495   -4.1396 H   0  0  0  0  0  0
   -1.3541   -6.0220   -1.3445 H   0  0  0  0  0  0
    1.9481   -9.1667   -2.5001 H   0  0  0  0  0  0
   -4.3338  -10.4397   -2.3949 H   0  0  0  0  0  0
   -4.4138   -8.2231   -1.7486 H   0  0  0  0  0  0
   -1.7222   -4.4044   -0.1257 H   0  0  0  0  0  0
  1  2  1  0  0  0
  1 33  1  0  0  0
  1 34  1  0  0  0
  1 35  1  0  0  0
  2  3  1  0  0  0
  2 36  1  0  0  0
  2 37  1  0  0  0
  3  4  1  0  0  0
  3  5  1  0  0  0
  3 23  1  0  0  0
  5 16  2  0  0  0
  5  6  1  0  0  0
  6  7  1  0  0  0
  6 50  1  0  0  0
  7 12  2  0  0  0
  7  8  1  0  0  0
  8  9  2  0  0  0
  8 14  1  0  0  0
  9 10  1  0  0  0
  9 13  1  0  0  0
 10 11  2  0  0  0
 10 38  1  0  0  0
 11 12  1  0  0  0
 11 39  1  0  0  0
 12 40  1  0  0  0
 14 15  2  0  0  0
 14 16  1  0  0  0
 16 17  1  0  0  0
 17 22  2  0  0  0
 17 18  1  0  0  0
 18 19  2  0  0  0
 18 41  1  0  0  0
 19 20  1  0  0  0
 19 42  1  0  0  0
 20 21  2  0  0  0
 20 43  1  0  0  0
 21 22  1  0  0  0
 21 44  1  0  0  0
 22 45  1  0  0  0
 23 24  1  0  0  0
 23 46  1  0  0  0
 24 32  1  0  0  0
 24 25  2  0  0  0
 25 29  1  0  0  0
 25 26  1  0  0  0
 26 27  2  0  0  0
 26 30  1  0  0  0
 27 28  1  0  0  0
 28 29  2  0  0  0
 28 47  1  0  0  0
 30 31  2  0  0  0
 31 32  1  0  0  0
 31 48  1  0  0  0
 32 49  1  0  0  0
M  CHG  1  16   1
M  END
> <s_m_source_file>
/Users/andrea/Development/mcce-charges/epik_inhibitors/output/Idelalisib/Idelalisib-input.mol2

> <i_m_source_file_index>
1

> <r_epik_Ionization_Penalty>
  8.8158

> <r_epik_Ionization_Penalty_Charging>
  6.6693

> <r_epik_Ionization_Penalty_Neutral>
  2.1466

> <r_epik_State_Penalty>
 11.8011

> <i_epik_Tot_Q>
1

$$$$
5-fluoro-3-phenyl-2-[(1~{S})-1-(1~{H}-purin-6-ylamino)propyl]quinazolin-4-one
                    3D
 Structure written by MMmdl.
 48 52  0  0  1  0            999 V2000
   -5.2180   -5.1996    0.6441 C   0  0  0  0  0  0
   -3.9438   -5.9721    0.3330 C   0  0  0  0  0  0
   -3.5422   -5.8650   -1.1344 C   0  0  1  0  0  0
   -4.3471   -6.3375   -1.7166 H   0  0  0  0  0  0
   -3.2684   -4.4243   -1.5152 C   0  0  0  0  0  0
   -2.3191   -3.8360   -0.8542 N   0  0  0  0  0  0
   -2.0751   -2.4788   -1.0864 C   0  0  0  0  0  0
   -2.8340   -1.7334   -1.9885 C   0  0  0  0  0  0
   -2.5800   -0.3700   -2.1802 C   0  0  0  0  0  0
   -1.5594    0.2518   -1.4623 C   0  0  0  0  0  0
   -0.7952   -0.4837   -0.5597 C   0  0  0  0  0  0
   -1.0530   -1.8424   -0.3725 C   0  0  0  0  0  0
   -3.3006    0.3611   -3.0422 F   0  0  0  0  0  0
   -3.8939   -2.4176   -2.7585 C   0  0  0  0  0  0
   -4.5129   -1.7696   -3.5995 O   0  0  0  0  0  0
   -4.0507   -3.7930   -2.4853 N   0  0  0  0  0  0
   -5.0119   -4.5105   -3.2769 C   0  0  0  0  0  0
   -6.3595   -4.1535   -3.2293 C   0  0  0  0  0  0
   -7.2927   -4.8487   -3.9984 C   0  0  0  0  0  0
   -6.8784   -5.9009   -4.8150 C   0  0  0  0  0  0
   -5.5308   -6.2580   -4.8625 C   0  0  0  0  0  0
   -4.5976   -5.5628   -4.0934 C   0  0  0  0  0  0
   -2.3142   -6.5528   -1.4252 N   0  0  0  0  0  0
   -2.2705   -7.8323   -1.7974 C   0  0  0  0  0  0
   -1.1114   -8.4938   -2.0752 C   0  0  0  0  0  0
   -1.1078   -9.9051   -2.4824 C   0  0  0  0  0  0
    0.1130  -10.2981   -2.6880 N   0  0  0  0  0  0
    0.8509   -9.1523   -2.4128 C   0  0  0  0  0  0
    0.1922   -8.0841   -2.0550 N   0  0  0  0  0  0
   -2.2641  -10.6274   -2.6033 N   0  0  0  0  0  0
   -3.3449   -9.9597   -2.3289 C   0  0  0  0  0  0
   -3.4155   -8.6421   -1.9429 N   0  5  0  0  0  0
   -5.4621   -5.3095    1.7110 H   0  0  0  0  0  0
   -6.0447   -5.5958    0.0361 H   0  0  0  0  0  0
   -5.0679   -4.1353    0.4100 H   0  0  0  0  0  0
   -3.1171   -5.5759    0.9410 H   0  0  0  0  0  0
   -4.0938   -7.0364    0.5671 H   0  0  0  0  0  0
   -1.3770    1.2261   -1.5942 H   0  0  0  0  0  0
   -0.0610   -0.0385   -0.0470 H   0  0  0  0  0  0
   -0.4975   -2.3626    0.2762 H   0  0  0  0  0  0
   -6.6935   -3.3344   -2.5974 H   0  0  0  0  0  0
   -8.3420   -4.5709   -3.9621 H   0  0  0  0  0  0
   -7.6051   -6.4425   -5.4134 H   0  0  0  0  0  0
   -5.2087   -7.0771   -5.4987 H   0  0  0  0  0  0
   -3.5499   -5.8495   -4.1396 H   0  0  0  0  0  0
    0.4393   -7.0494   -1.7750 H   0  0  0  0  0  0
    1.8476   -9.1684   -2.4925 H   0  0  0  0  0  0
   -4.2376  -10.4062   -2.3904 H   0  0  0  0  0  0
  1  2  1  0  0  0
  1 33  1  0  0  0
  1 34  1  0  0  0
  1 35  1  0  0  0
  2  3  1  0  0  0
  2 36  1  0  0  0
  2 37  1  0  0  0
  3  4  1  0  0  0
  3  5  1  0  0  0
  3 23  1  0  0  0
  5 16  1  0  0  0
  5  6  2  0  0  0
  6  7  1  0  0  0
  7 12  2  0  0  0
  7  8  1  0  0  0
  8  9  2  0  0  0
  8 14  1  0  0  0
  9 10  1  0  0  0
  9 13  1  0  0  0
 10 11  2  0  0  0
 10 38  1  0  0  0
 11 12  1  0  0  0
 11 39  1  0  0  0
 12 40  1  0  0  0
 14 15  2  0  0  0
 14 16  1  0  0  0
 16 17  1  0  0  0
 17 22  2  0  0  0
 17 18  1  0  0  0
 18 19  2  0  0  0
 18 41  1  0  0  0
 19 20  1  0  0  0
 19 42  1  0  0  0
 20 21  2  0  0  0
 20 43  1  0  0  0
 21 22  1  0  0  0
 21 44  1  0  0  0
 22 45  1  0  0  0
 23 24  2  0  0  0
 24 32  1  0  0  0
 24 25  1  0  0  0
 25 29  1  0  0  0
 25 26  2  0  0  0
 26 27  1  0  0  0
 26 30  1  0  0  0
 27 28  2  0  0  0
 28 29  1  0  0  0
 28 47  1  0  0  0
 29 46  1  0  0  0
 30 31  2  0  0  0
 31 48  1  0  0  0
 31 32  1  0  0  0
M  CHG  1  32  -1
M  END
> <s_m_source_file>
/Users/andrea/Development/mcce-charges/epik_inhibitors/output/Idelalisib/Idelalisib-input.mol2

> <i_m_source_file_index>
1

> <r_lp_tautomer_probability>
4.86895066764576e-09

> <r_epik_Ionization_Penalty>
  7.5209

> <r_epik_Ionization_Penalty_Charging>
  7.5209

> <r_epik_Ionization_Penalty_Neutral>
  0.0000

> <r_epik_State_Penalty>
 12.0616

> <i_epik_Tot_Q>
-1

$$$$
5-fluoro-3-phenyl-2-[(1~{S})-1-(1~{H}-purin-6-ylamino)propyl]quinazolin-4-one
                    3D
 Structure written by MMmdl.
 48 52  0  0  1  0            999 V2000
    0.4604   -4.1220   -2.3937 C   0  0  0  0  0  0
   -0.7568   -5.0193   -2.5684 C   0  0  0  0  0  0
   -1.1374   -5.7406   -1.2797 C   0  0  1  0  0  0
   -0.2939   -6.3997   -1.0266 H   0  0  0  0  0  0
   -1.4943   -4.7488   -0.1913 C   0  0  0  0  0  0
   -2.4907   -3.9590   -0.4514 N   0  0  0  0  0  0
   -2.8153   -2.9561    0.4674 C   0  0  0  0  0  0
   -2.0884   -2.7641    1.6422 C   0  0  0  0  0  0
   -2.4241   -1.7348    2.5299 C   0  0  0  0  0  0
   -3.4948   -0.8908    2.2384 C   0  0  0  0  0  0
   -4.2276   -1.0745    1.0684 C   0  0  0  0  0  0
   -3.8883   -2.1020    0.1870 C   0  0  0  0  0  0
   -1.7353   -1.5358    3.6624 F   0  0  0  0  0  0
   -0.9736   -3.6861    1.9449 C   0  0  0  0  0  0
   -0.3814   -3.5521    3.0134 O   0  0  0  0  0  0
   -0.7357   -4.6879    0.9802 N   0  0  0  0  0  0
    0.2831   -5.6557    1.2816 C   0  0  0  0  0  0
    1.6045   -5.2448    1.4573 C   0  0  0  0  0  0
    2.5935   -6.1836    1.7511 C   0  0  0  0  0  0
    2.2612   -7.5331    1.8691 C   0  0  0  0  0  0
    0.9398   -7.9440    1.6932 C   0  0  0  0  0  0
   -0.0492   -7.0053    1.3994 C   0  0  0  0  0  0
   -2.3142   -6.5528   -1.4252 N   0  0  0  0  0  0
   -2.2705   -7.8323   -1.7974 C   0  0  0  0  0  0
   -1.1114   -8.4938   -2.0752 C   0  0  0  0  0  0
   -1.1078   -9.9051   -2.4824 C   0  0  0  0  0  0
    0.1130  -10.2981   -2.6880 N   0  0  0  0  0  0
    0.8509   -9.1523   -2.4128 C   0  0  0  0  0  0
    0.1922   -8.0841   -2.0550 N   0  0  0  0  0  0
   -2.2641  -10.6274   -2.6033 N   0  0  0  0  0  0
   -3.3449   -9.9597   -2.3289 C   0  0  0  0  0  0
   -3.4155   -8.6421   -1.9429 N   0  5  0  0  0  0
    0.6914   -3.6274   -3.3488 H   0  0  0  0  0  0
    1.3213   -4.7293   -2.0777 H   0  0  0  0  0  0
    0.2480   -3.3608   -1.6286 H   0  0  0  0  0  0
   -1.6177   -4.4119   -2.8845 H   0  0  0  0  0  0
   -0.5445   -5.7805   -3.3335 H   0  0  0  0  0  0
   -3.7356   -0.1526    2.8685 H   0  0  0  0  0  0
   -4.9976   -0.4712    0.8607 H   0  0  0  0  0  0
   -4.4218   -2.2273   -0.6494 H   0  0  0  0  0  0
    1.8747   -4.1955    1.3689 H   0  0  0  0  0  0
    3.6224   -5.8642    1.8885 H   0  0  0  0  0  0
    3.0314   -8.2640    2.0973 H   0  0  0  0  0  0
    0.6816   -8.9948    1.7854 H   0  0  0  0  0  0
   -1.0757   -7.3373    1.2656 H   0  0  0  0  0  0
    0.4393   -7.0494   -1.7750 H   0  0  0  0  0  0
    1.8476   -9.1684   -2.4925 H   0  0  0  0  0  0
   -4.2376  -10.4062   -2.3904 H   0  0  0  0  0  0
  1  2  1  0  0  0
  1 33  1  0  0  0
  1 34  1  0  0  0
  1 35  1  0  0  0
  2  3  1  0  0  0
  2 36  1  0  0  0
  2 37  1  0  0  0
  3  4  1  0  0  0
  3  5  1  0  0  0
  3 23  1  0  0  0
  5 16  1  0  0  0
  5  6  2  0  0  0
  6  7  1  0  0  0
  7 12  2  0  0  0
  7  8  1  0  0  0
  8  9  2  0  0  0
  8 14  1  0  0  0
  9 10  1  0  0  0
  9 13  1  0  0  0
 10 11  2  0  0  0
 10 38  1  0  0  0
 11 12  1  0  0  0
 11 39  1  0  0  0
 12 40  1  0  0  0
 14 15  2  0  0  0
 14 16  1  0  0  0
 16 17  1  0  0  0
 17 22  2  0  0  0
 17 18  1  0  0  0
 18 19  2  0  0  0
 18 41  1  0  0  0
 19 20  1  0  0  0
 19 42  1  0  0  0
 20 21  2  0  0  0
 20 43  1  0  0  0
 21 22  1  0  0  0
 21 44  1  0  0  0
 22 45  1  0  0  0
 23 24  2  0  0  0
 24 32  1  0  0  0
 24 25  1  0  0  0
 25 29  1  0  0  0
 25 26  2  0  0  0
 26 27  1  0  0  0
 26 30  1  0  0  0
 27 28  2  0  0  0
 28 29  1  0  0  0
 28 47  1  0  0  0
 29 46  1  0  0  0
 30 31  2  0  0  0
 31 48  1  0  0  0
 31 32  1  0  0  0
M  CHG  1  32  -1
M  END
> <s_m_source_file>
/Users/andrea/Development/mcce-charges/epik_inhibitors/output/Idelalisib/Idelalisib-input.mol2

> <i_m_source_file_index>
1

> <r_lp_tautomer_probability>
4.86895066764576e-09

> <r_epik_Ionization_Penalty>
  7.5209

> <r_epik_Ionization_Penalty_Charging>
  7.5209

> <r_epik_Ionization_Penalty_Neutral>
  0.0000

> <r_epik_State_Penalty>
 12.0900

> <i_epik_Tot_Q>
-1

$$$$
5-fluoro-3-phenyl-2-[(1~{S})-1-(1~{H}-purin-6-ylamino)propyl]quinazolin-4-one
                    3D
 Structure written by MMmdl.
 50 54  0  0  1  0            999 V2000
   -5.2179   -5.1978    0.6415 C   0  0  0  0  0  0
   -3.9437   -5.9704    0.3307 C   0  0  0  0  0  0
   -3.5424   -5.8643   -1.1369 C   0  0  1  0  0  0
   -4.3473   -6.3372   -1.7186 H   0  0  0  0  0  0
   -3.2688   -4.4238   -1.5187 C   0  0  0  0  0  0
   -2.3195   -3.8350   -0.8583 N   0  0  0  0  0  0
   -2.0756   -2.4779   -1.0915 C   0  0  0  0  0  0
   -2.8348   -1.7332   -1.9940 C   0  0  0  0  0  0
   -2.5810   -0.3699   -2.1867 C   0  0  0  0  0  0
   -1.5603    0.2525   -1.4694 C   0  0  0  0  0  0
   -0.7959   -0.4823   -0.5664 C   0  0  0  0  0  0
   -1.0535   -1.8409   -0.3783 C   0  0  0  0  0  0
   -3.3018    0.3605   -3.0490 F   0  0  0  0  0  0
   -3.8948   -2.4181   -2.7633 C   0  0  0  0  0  0
   -4.5140   -1.7707   -3.6046 O   0  0  0  0  0  0
   -4.0514   -3.7933   -2.4891 N   0  3  0  0  0  0
   -5.0127   -4.5114   -3.2800 C   0  0  0  0  0  0
   -6.3603   -4.1545   -3.2324 C   0  0  0  0  0  0
   -7.2936   -4.8504   -4.0009 C   0  0  0  0  0  0
   -6.8793   -5.9031   -4.8168 C   0  0  0  0  0  0
   -5.5317   -6.2601   -4.8643 C   0  0  0  0  0  0
   -4.5984   -5.5643   -4.0959 C   0  0  0  0  0  0
   -2.3144   -6.5522   -1.4274 N   0  0  0  0  0  0
   -2.2706   -7.8319   -1.7988 C   0  0  0  0  0  0
   -1.1114   -8.4938   -2.0754 C   0  0  0  0  0  0
   -1.1078   -9.9051   -2.4826 C   0  0  0  0  0  0
    0.1130  -10.2980   -2.6883 N   0  0  0  0  0  0
    0.8509   -9.1522   -2.4133 C   0  0  0  0  0  0
    0.1922   -8.0840   -2.0554 N   0  0  0  0  0  0
   -2.2641  -10.6274   -2.6033 N   0  0  0  0  0  0
   -3.3450   -9.9595   -2.3297 C   0  0  0  0  0  0
   -3.4156   -8.6415   -1.9451 N   0  0  0  0  0  0
   -5.4618   -5.3070    1.7085 H   0  0  0  0  0  0
   -6.0446   -5.5945    0.0339 H   0  0  0  0  0  0
   -5.0680   -4.1337    0.4066 H   0  0  0  0  0  0
   -3.1170   -5.5737    0.9382 H   0  0  0  0  0  0
   -4.0935   -7.0345    0.5656 H   0  0  0  0  0  0
   -1.3781    1.2268   -1.6021 H   0  0  0  0  0  0
   -0.0616   -0.0367   -0.0542 H   0  0  0  0  0  0
   -0.4978   -2.3605    0.2707 H   0  0  0  0  0  0
   -6.6942   -3.3350   -2.6010 H   0  0  0  0  0  0
   -8.3429   -4.5727   -3.9645 H   0  0  0  0  0  0
   -7.6061   -6.4452   -5.4147 H   0  0  0  0  0  0
   -5.2096   -7.0796   -5.5000 H   0  0  0  0  0  0
   -3.5507   -5.8509   -4.1421 H   0  0  0  0  0  0
   -2.2238  -11.6830   -2.9100 H   0  0  0  0  0  0
    1.8483   -9.1254   -2.4808 H   0  0  0  0  0  0
   -4.1819  -10.4990   -2.4220 H   0  0  0  0  0  0
   -1.3543   -6.0212   -1.3473 H   0  0  0  0  0  0
   -1.7224   -4.4028   -0.1296 H   0  0  0  0  0  0
  1  2  1  0  0  0
  1 33  1  0  0  0
  1 34  1  0  0  0
  1 35  1  0  0  0
  2  3  1  0  0  0
  2 36  1  0  0  0
  2 37  1  0  0  0
  3  4  1  0  0  0
  3  5  1  0  0  0
  3 23  1  0  0  0
  5 16  2  0  0  0
  5  6  1  0  0  0
  6  7  1  0  0  0
  6 50  1  0  0  0
  7 12  2  0  0  0
  7  8  1  0  0  0
  8  9  2  0  0  0
  8 14  1  0  0  0
  9 10  1  0  0  0
  9 13  1  0  0  0
 10 11  2  0  0  0
 10 38  1  0  0  0
 11 12  1  0  0  0
 11 39  1  0  0  0
 12 40  1  0  0  0
 14 15  2  0  0  0
 14 16  1  0  0  0
 16 17  1  0  0  0
 17 22  2  0  0  0
 17 18  1  0  0  0
 18 19  2  0  0  0
 18 41  1  0  0  0
 19 20  1  0  0  0
 19 42  1  0  0  0
 20 21  2  0  0  0
 20 43  1  0  0  0
 21 22  1  0  0  0
 21 44  1  0  0  0
 22 45  1  0  0  0
 23 24  1  0  0  0
 23 49  1  0  0  0
 24 32  1  0  0  0
 24 25  2  0  0  0
 25 29  1  0  0  0
 25 26  1  0  0  0
 26 27  2  0  0  0
 26 30  1  0  0  0
 27 28  1  0  0  0
 28 29  2  0  0  0
 28 47  1  0  0  0
 30 31  1  0  0  0
 30 46  1  0  0  0
 31 48  1  0  0  0
 31 32  2  0  0  0
M  CHG  1  16   1
M  END
> <s_m_source_file>
/Users/andrea/Development/mcce-charges/epik_inhibitors/output/Idelalisib/Idelalisib-input.mol2

> <i_m_source_file_index>
1

> <r_epik_Ionization_Penalty>
 16.2952

> <r_epik_Ionization_Penalty_Charging>
  6.6693

> <r_epik_Ionization_Penalty_Neutral>
  9.6259

> <r_epik_State_Penalty>
 12.1422

> <i_epik_Tot_Q>
1

$$$$
5-fluoro-3-phenyl-2-[(1~{S})-1-(1~{H}-purin-6-ylamino)propyl]quinazolin-4-one
                    3D
 Structure written by MMmdl.
 51 55  0  0  1  0            999 V2000
   -5.2169   -5.2027    0.6501 C   0  0  0  0  0  0
   -3.9428   -5.9748    0.3377 C   0  0  0  0  0  0
   -3.5419   -5.8663   -1.1298 C   0  0  1  0  0  0
   -4.3470   -6.3383   -1.7121 H   0  0  0  0  0  0
   -3.2683   -4.4253   -1.5094 C   0  0  0  0  0  0
   -2.3187   -3.8375   -0.8483 N   0  0  0  0  0  0
   -2.0749   -2.4801   -1.0793 C   0  0  0  0  0  0
   -2.8343   -1.7339   -1.9804 C   0  0  0  0  0  0
   -2.5804   -0.3703   -2.1710 C   0  0  0  0  0  0
   -1.5595    0.2509   -1.4530 C   0  0  0  0  0  0
   -0.7949   -0.4854   -0.5514 C   0  0  0  0  0  0
   -1.0526   -1.8443   -0.3653 C   0  0  0  0  0  0
   -3.3014    0.3615   -3.0320 F   0  0  0  0  0  0
   -3.8945   -2.4175   -2.7506 C   0  0  0  0  0  0
   -4.5139   -1.7687   -3.5907 O   0  0  0  0  0  0
   -4.0511   -3.7931   -2.4786 N   0  3  0  0  0  0
   -5.0126   -4.5100   -3.2704 C   0  0  0  0  0  0
   -6.3602   -4.1531   -3.2219 C   0  0  0  0  0  0
   -7.2937   -4.8476   -3.9912 C   0  0  0  0  0  0
   -6.8797   -5.8990   -4.8090 C   0  0  0  0  0  0
   -5.5321   -6.2560   -4.8574 C   0  0  0  0  0  0
   -4.5986   -5.5615   -4.0881 C   0  0  0  0  0  0
   -2.3139   -6.5538   -1.4218 N   0  0  0  0  0  0
   -2.2703   -7.8330   -1.7952 C   0  0  0  0  0  0
   -1.1113   -8.4941   -2.0743 C   0  0  0  0  0  0
   -1.1078   -9.9051   -2.4826 C   0  0  0  0  0  0
    0.1130  -10.2980   -2.6883 N   0  0  0  0  0  0
    0.8509   -9.1521   -2.4137 C   0  0  0  0  0  0
    0.1923   -8.0842   -2.0546 N   0  0  0  0  0  0
   -2.2642  -10.6271   -2.6042 N   0  0  0  0  0  0
   -3.3450   -9.9593   -2.3304 C   0  0  0  0  0  0
   -3.4154   -8.6422   -1.9425 N   0  3  0  0  0  0
   -5.4606   -5.3135    1.7170 H   0  0  0  0  0  0
   -6.0438   -5.5983    0.0420 H   0  0  0  0  0  0
   -5.0670   -4.1382    0.4168 H   0  0  0  0  0  0
   -3.1159   -5.5791    0.9457 H   0  0  0  0  0  0
   -4.0926   -7.0393    0.5709 H   0  0  0  0  0  0
   -1.3773    1.2254   -1.5841 H   0  0  0  0  0  0
   -0.0605   -0.0407   -0.0386 H   0  0  0  0  0  0
   -0.4967   -2.3650    0.2827 H   0  0  0  0  0  0
   -6.6939   -3.3346   -2.5891 H   0  0  0  0  0  0
   -8.3430   -4.5699   -3.9542 H   0  0  0  0  0  0
   -7.6066   -6.4401   -5.4075 H   0  0  0  0  0  0
   -5.2102   -7.0745   -5.4945 H   0  0  0  0  0  0
   -3.5509   -5.8481   -4.1350 H   0  0  0  0  0  0
    0.6255  -11.2222   -2.9936 H   0  0  0  0  0  0
    1.8482   -9.1252   -2.4816 H   0  0  0  0  0  0
   -4.1820  -10.4986   -2.4235 H   0  0  0  0  0  0
   -1.3538   -6.0231   -1.3410 H   0  0  0  0  0  0
   -4.3924   -8.1818   -1.7341 H   0  0  0  0  0  0
   -1.7215   -4.4065   -0.1206 H   0  0  0  0  0  0
  1  2  1  0  0  0
  1 33  1  0  0  0
  1 34  1  0  0  0
  1 35  1  0  0  0
  2  3  1  0  0  0
  2 36  1  0  0  0
  2 37  1  0  0  0
  3  4  1  0  0  0
  3  5  1  0  0  0
  3 23  1  0  0  0
  5 16  2  0  0  0
  5  6  1  0  0  0
  6  7  1  0  0  0
  6 51  1  0  0  0
  7 12  2  0  0  0
  7  8  1  0  0  0
  8  9  2  0  0  0
  8 14  1  0  0  0
  9 10  1  0  0  0
  9 13  1  0  0  0
 10 11  2  0  0  0
 10 38  1  0  0  0
 11 12  1  0  0  0
 11 39  1  0  0  0
 12 40  1  0  0  0
 14 15  2  0  0  0
 14 16  1  0  0  0
 16 17  1  0  0  0
 17 22  2  0  0  0
 17 18  1  0  0  0
 18 19  2  0  0  0
 18 41  1  0  0  0
 19 20  1  0  0  0
 19 42  1  0  0  0
 20 21  2  0  0  0
 20 43  1  0  0  0
 21 22  1  0  0  0
 21 44  1  0  0  0
 22 45  1  0  0  0
 23 24  1  0  0  0
 23 49  1  0  0  0
 24 32  1  0  0  0
 24 25  2  0  0  0
 25 29  1  0  0  0
 25 26  1  0  0  0
 26 27  1  0  0  0
 26 30  2  0  0  0
 27 28  1  0  0  0
 27 46  1  0  0  0
 28 29  2  0  0  0
 28 47  1  0  0  0
 30 31  1  0  0  0
 31 48  1  0  0  0
 31 32  2  0  0  0
 32 50  1  0  0  0
M  CHG  2  16   1  32   1
M  END
> <s_m_source_file>
/Users/andrea/Development/mcce-charges/epik_inhibitors/output/Idelalisib/Idelalisib-input.mol2

> <i_m_source_file_index>
1

> <r_lp_tautomer_probability>
0.859734376263432

> <r_epik_Ionization_Penalty>
 13.5970

> <r_epik_Ionization_Penalty_Charging>
 11.1255

> <r_epik_Ionization_Penalty_Neutral>
  2.4715

> <r_epik_State_Penalty>
 12.1831

> <i_epik_Tot_Q>
2

$$$$
5-fluoro-3-phenyl-2-[(1~{S})-1-(1~{H}-purin-6-ylamino)propyl]quinazolin-4-one
                    3D
 Structure written by MMmdl.
 49 53  0  0  1  0            999 V2000
    0.4604   -4.1220   -2.3937 C   0  0  0  0  0  0
   -0.7568   -5.0193   -2.5684 C   0  0  0  0  0  0
   -1.1374   -5.7406   -1.2797 C   0  0  1  0  0  0
   -0.2939   -6.3997   -1.0266 H   0  0  0  0  0  0
   -1.4943   -4.7488   -0.1913 C   0  0  0  0  0  0
   -2.4907   -3.9590   -0.4514 N   0  0  0  0  0  0
   -2.8153   -2.9561    0.4674 C   0  0  0  0  0  0
   -2.0884   -2.7641    1.6422 C   0  0  0  0  0  0
   -2.4241   -1.7348    2.5299 C   0  0  0  0  0  0
   -3.4948   -0.8908    2.2384 C   0  0  0  0  0  0
   -4.2276   -1.0745    1.0684 C   0  0  0  0  0  0
   -3.8883   -2.1020    0.1870 C   0  0  0  0  0  0
   -1.7353   -1.5358    3.6624 F   0  0  0  0  0  0
   -0.9736   -3.6861    1.9449 C   0  0  0  0  0  0
   -0.3814   -3.5521    3.0134 O   0  0  0  0  0  0
   -0.7357   -4.6879    0.9802 N   0  0  0  0  0  0
    0.2831   -5.6557    1.2816 C   0  0  0  0  0  0
    1.6045   -5.2448    1.4573 C   0  0  0  0  0  0
    2.5935   -6.1836    1.7511 C   0  0  0  0  0  0
    2.2612   -7.5331    1.8691 C   0  0  0  0  0  0
    0.9398   -7.9440    1.6932 C   0  0  0  0  0  0
   -0.0492   -7.0053    1.3994 C   0  0  0  0  0  0
   -2.3142   -6.5528   -1.4252 N   0  0  0  0  0  0
   -2.2705   -7.8323   -1.7974 C   0  0  0  0  0  0
   -1.1114   -8.4938   -2.0752 C   0  0  0  0  0  0
   -1.1078   -9.9051   -2.4824 C   0  0  0  0  0  0
    0.1130  -10.2981   -2.6880 N   0  0  0  0  0  0
    0.8509   -9.1523   -2.4128 C   0  0  0  0  0  0
    0.1922   -8.0841   -2.0550 N   0  0  0  0  0  0
   -2.2641  -10.6274   -2.6033 N   0  0  0  0  0  0
   -3.3449   -9.9597   -2.3289 C   0  0  0  0  0  0
   -3.4155   -8.6421   -1.9429 N   0  0  0  0  0  0
    0.6914   -3.6274   -3.3488 H   0  0  0  0  0  0
    1.3213   -4.7293   -2.0777 H   0  0  0  0  0  0
    0.2480   -3.3608   -1.6286 H   0  0  0  0  0  0
   -1.6177   -4.4119   -2.8845 H   0  0  0  0  0  0
   -0.5445   -5.7805   -3.3335 H   0  0  0  0  0  0
   -3.7356   -0.1526    2.8685 H   0  0  0  0  0  0
   -4.9976   -0.4712    0.8607 H   0  0  0  0  0  0
   -4.4218   -2.2273   -0.6494 H   0  0  0  0  0  0
    1.8747   -4.1955    1.3689 H   0  0  0  0  0  0
    3.6224   -5.8642    1.8885 H   0  0  0  0  0  0
    3.0314   -8.2640    2.0973 H   0  0  0  0  0  0
    0.6816   -8.9948    1.7854 H   0  0  0  0  0  0
   -1.0757   -7.3373    1.2656 H   0  0  0  0  0  0
    0.4393   -7.0494   -1.7750 H   0  0  0  0  0  0
    1.8476   -9.1684   -2.4925 H   0  0  0  0  0  0
   -4.2376  -10.4062   -2.3904 H   0  0  0  0  0  0
   -2.2239  -11.6827   -2.9109 H   0  0  0  0  0  0
  1  2  1  0  0  0
  1 33  1  0  0  0
  1 34  1  0  0  0
  1 35  1  0  0  0
  2  3  1  0  0  0
  2 36  1  0  0  0
  2 37  1  0  0  0
  3  4  1  0  0  0
  3  5  1  0  0  0
  3 23  1  0  0  0
  5 16  1  0  0  0
  5  6  2  0  0  0
  6  7  1  0  0  0
  7 12  2  0  0  0
  7  8  1  0  0  0
  8  9  2  0  0  0
  8 14  1  0  0  0
  9 10  1  0  0  0
  9 13  1  0  0  0
 10 11  2  0  0  0
 10 38  1  0  0  0
 11 12  1  0  0  0
 11 39  1  0  0  0
 12 40  1  0  0  0
 14 15  2  0  0  0
 14 16  1  0  0  0
 16 17  1  0  0  0
 17 22  2  0  0  0
 17 18  1  0  0  0
 18 19  2  0  0  0
 18 41  1  0  0  0
 19 20  1  0  0  0
 19 42  1  0  0  0
 20 21  2  0  0  0
 20 43  1  0  0  0
 21 22  1  0  0  0
 21 44  1  0  0  0
 22 45  1  0  0  0
 23 24  2  0  0  0
 24 32  1  0  0  0
 24 25  1  0  0  0
 25 29  1  0  0  0
 25 26  2  0  0  0
 26 27  1  0  0  0
 26 30  1  0  0  0
 27 28  2  0  0  0
 28 29  1  0  0  0
 28 47  1  0  0  0
 29 46  1  0  0  0
 30 31  1  0  0  0
 30 49  1  0  0  0
 31 48  1  0  0  0
 31 32  2  0  0  0
M  END
> <s_m_source_file>
/Users/andrea/Development/mcce-charges/epik_inhibitors/output/Idelalisib/Idelalisib-input.mol2

> <i_m_source_file_index>
1

> <r_lp_tautomer_probability>
3.36693565152605e-10

> <r_epik_Ionization_Penalty>
  6.8891

> <r_epik_Ionization_Penalty_Charging>
  5.8516

> <r_epik_Ionization_Penalty_Neutral>
  1.0375

> <r_epik_State_Penalty>
 12.8397

> <i_epik_Tot_Q>
0

$$$$
5-fluoro-3-phenyl-2-[(1~{S})-1-(1~{H}-purin-6-ylamino)propyl]quinazolin-4-one
                    3D
 Structure written by MMmdl.
 49 53  0  0  1  0            999 V2000
   -5.2180   -5.1996    0.6441 C   0  0  0  0  0  0
   -3.9438   -5.9721    0.3330 C   0  0  0  0  0  0
   -3.5422   -5.8650   -1.1344 C   0  0  1  0  0  0
   -4.3471   -6.3375   -1.7166 H   0  0  0  0  0  0
   -3.2684   -4.4243   -1.5152 C   0  0  0  0  0  0
   -2.3191   -3.8360   -0.8542 N   0  0  0  0  0  0
   -2.0751   -2.4788   -1.0864 C   0  0  0  0  0  0
   -2.8340   -1.7334   -1.9885 C   0  0  0  0  0  0
   -2.5800   -0.3700   -2.1802 C   0  0  0  0  0  0
   -1.5594    0.2518   -1.4623 C   0  0  0  0  0  0
   -0.7952   -0.4837   -0.5597 C   0  0  0  0  0  0
   -1.0530   -1.8424   -0.3725 C   0  0  0  0  0  0
   -3.3006    0.3611   -3.0422 F   0  0  0  0  0  0
   -3.8939   -2.4176   -2.7585 C   0  0  0  0  0  0
   -4.5129   -1.7696   -3.5995 O   0  0  0  0  0  0
   -4.0507   -3.7930   -2.4853 N   0  0  0  0  0  0
   -5.0119   -4.5105   -3.2769 C   0  0  0  0  0  0
   -6.3595   -4.1535   -3.2293 C   0  0  0  0  0  0
   -7.2927   -4.8487   -3.9984 C   0  0  0  0  0  0
   -6.8784   -5.9009   -4.8150 C   0  0  0  0  0  0
   -5.5308   -6.2580   -4.8625 C   0  0  0  0  0  0
   -4.5976   -5.5628   -4.0934 C   0  0  0  0  0  0
   -2.3142   -6.5528   -1.4252 N   0  0  0  0  0  0
   -2.2705   -7.8323   -1.7974 C   0  0  0  0  0  0
   -1.1114   -8.4938   -2.0752 C   0  0  0  0  0  0
   -1.1078   -9.9051   -2.4824 C   0  0  0  0  0  0
    0.1130  -10.2981   -2.6880 N   0  0  0  0  0  0
    0.8509   -9.1523   -2.4128 C   0  0  0  0  0  0
    0.1922   -8.0841   -2.0550 N   0  0  0  0  0  0
   -2.2641  -10.6274   -2.6033 N   0  0  0  0  0  0
   -3.3449   -9.9597   -2.3289 C   0  0  0  0  0  0
   -3.4155   -8.6421   -1.9429 N   0  0  0  0  0  0
   -5.4621   -5.3095    1.7110 H   0  0  0  0  0  0
   -6.0447   -5.5958    0.0361 H   0  0  0  0  0  0
   -5.0679   -4.1353    0.4100 H   0  0  0  0  0  0
   -3.1171   -5.5759    0.9410 H   0  0  0  0  0  0
   -4.0938   -7.0364    0.5671 H   0  0  0  0  0  0
   -1.3770    1.2261   -1.5942 H   0  0  0  0  0  0
   -0.0610   -0.0385   -0.0470 H   0  0  0  0  0  0
   -0.4975   -2.3626    0.2762 H   0  0  0  0  0  0
   -6.6935   -3.3344   -2.5974 H   0  0  0  0  0  0
   -8.3420   -4.5709   -3.9621 H   0  0  0  0  0  0
   -7.6051   -6.4425   -5.4134 H   0  0  0  0  0  0
   -5.2087   -7.0771   -5.4987 H   0  0  0  0  0  0
   -3.5499   -5.8495   -4.1396 H   0  0  0  0  0  0
    0.4393   -7.0494   -1.7750 H   0  0  0  0  0  0
    1.8476   -9.1684   -2.4925 H   0  0  0  0  0  0
   -4.2376  -10.4062   -2.3904 H   0  0  0  0  0  0
   -2.2239  -11.6827   -2.9109 H   0  0  0  0  0  0
  1  2  1  0  0  0
  1 33  1  0  0  0
  1 34  1  0  0  0
  1 35  1  0  0  0
  2  3  1  0  0  0
  2 36  1  0  0  0
  2 37  1  0  0  0
  3  4  1  0  0  0
  3  5  1  0  0  0
  3 23  1  0  0  0
  5 16  1  0  0  0
  5  6  2  0  0  0
  6  7  1  0  0  0
  7 12  2  0  0  0
  7  8  1  0  0  0
  8  9  2  0  0  0
  8 14  1  0  0  0
  9 10  1  0  0  0
  9 13  1  0  0  0
 10 11  2  0  0  0
 10 38  1  0  0  0
 11 12  1  0  0  0
 11 39  1  0  0  0
 12 40  1  0  0  0
 14 15  2  0  0  0
 14 16  1  0  0  0
 16 17  1  0  0  0
 17 22  2  0  0  0
 17 18  1  0  0  0
 18 19  2  0  0  0
 18 41  1  0  0  0
 19 20  1  0  0  0
 19 42  1  0  0  0
 20 21  2  0  0  0
 20 43  1  0  0  0
 21 22  1  0  0  0
 21 44  1  0  0  0
 22 45  1  0  0  0
 23 24  2  0  0  0
 24 32  1  0  0  0
 24 25  1  0  0  0
 25 29  1  0  0  0
 25 26  2  0  0  0
 26 27  1  0  0  0
 26 30  1  0  0  0
 27 28  2  0  0  0
 28 29  1  0  0  0
 28 47  1  0  0  0
 29 46  1  0  0  0
 30 31  1  0  0  0
 30 49  1  0  0  0
 31 48  1  0  0  0
 31 32  2  0  0  0
M  END
> <s_m_source_file>
/Users/andrea/Development/mcce-charges/epik_inhibitors/output/Idelalisib/Idelalisib-input.mol2

> <i_m_source_file_index>
1

> <r_lp_tautomer_probability>
3.36693565152605e-10

> <r_epik_Ionization_Penalty>
  6.8891

> <r_epik_Ionization_Penalty_Charging>
  5.8516

> <r_epik_Ionization_Penalty_Neutral>
  1.0375

> <r_epik_State_Penalty>
 13.2987

> <i_epik_Tot_Q>
0

$$$$
