@<TRIPOS>MOLECULE
5-fluoro-3-phenyl-2-[(1~{S})-1-(1~{H}-purin-6-ylamino)propyl]quinazolin-4-one
49   53    1
SMALL
USER_CHARGES


@<TRIPOS>ATOM
      1 C1         -5.2169   -5.2027    0.6501 C.3       1 IDE        -0.1004 
      2 C2         -3.9428   -5.9748    0.3377 C.3       1 IDE        -0.1043 
      3 C3         -3.5419   -5.8663   -1.1298 C.3       1 IDE         0.2145 
      4 H1         -4.3470   -6.3383   -1.7121 H         1 IDE         0.0663 
      5 C4         -3.2683   -4.4253   -1.5094 C.ar      1 IDE         0.4962 
      6 N1         -2.3187   -3.8375   -0.8483 N.2       1 IDE        -0.6351 
      7 C5         -2.0749   -2.4801   -1.0793 C.ar      1 IDE         0.2121 
      8 C6         -2.8343   -1.7339   -1.9804 C.ar      1 IDE        -0.2295 
      9 C7         -2.5804   -0.3703   -2.1710 C.ar      1 IDE         0.2029 
     10 C8         -1.5595    0.2509   -1.4530 C.ar      1 IDE        -0.1916 
     11 C9         -0.7949   -0.4854   -0.5514 C.ar      1 IDE        -0.0679 
     12 C10        -1.0526   -1.8443   -0.3653 C.ar      1 IDE        -0.1319 
     13 F1         -3.3014    0.3615   -3.0320 F         1 IDE        -0.1096 
     14 C11        -3.8945   -2.4175   -2.7506 C.ar      1 IDE         0.7171 
     15 O1         -4.5139   -1.7687   -3.5907 O.2       1 IDE        -0.5774 
     16 N2         -4.0511   -3.7931   -2.4786 N.pl3     1 IDE        -0.3243 
     17 C12        -5.0126   -4.5100   -3.2704 C.ar      1 IDE         0.0270 
     18 C13        -6.3602   -4.1531   -3.2219 C.ar      1 IDE        -0.1226 
     19 C14        -7.2937   -4.8476   -3.9912 C.ar      1 IDE        -0.1232 
     20 C15        -6.8797   -5.8990   -4.8090 C.ar      1 IDE        -0.1196 
     21 C16        -5.5321   -6.2560   -4.8574 C.ar      1 IDE        -0.1232 
     22 C17        -4.5986   -5.5615   -4.0881 C.ar      1 IDE        -0.1226 
     23 N3         -2.3139   -6.5538   -1.4218 N.pl3     1 IDE        -0.7695 
     24 C18        -2.2703   -7.8330   -1.7952 C.ar      1 IDE         0.4545 
     25 C19        -1.1113   -8.4941   -2.0743 C.ar      1 IDE        -0.2068 
     26 C20        -1.1078   -9.9051   -2.4826 C.ar      1 IDE         0.5739 
     27 N4          0.1130  -10.2980   -2.6883 N.pl3     1 IDE        -0.6486 
     28 C21         0.8509   -9.1521   -2.4137 C.ar      1 IDE         0.5270 
     29 N5          0.1923   -8.0842   -2.0546 N.2       1 IDE        -0.5856 
     30 N6         -2.2642  -10.6271   -2.6042 N.ar      1 IDE        -0.5884 
     31 C22        -3.3450   -9.9593   -2.3304 C.ar      1 IDE         0.5746 
     32 N7         -3.4154   -8.6422   -1.9425 N.ar      1 IDE        -0.7090 
     33 H2         -5.4606   -5.3135    1.7170 H         1 IDE         0.0470 
     34 H3         -6.0438   -5.5983    0.0420 H         1 IDE         0.0470 
     35 H4         -5.0670   -4.1382    0.4168 H         1 IDE         0.0470 
     36 H5         -3.1159   -5.5791    0.9457 H         1 IDE         0.0611 
     37 H6         -4.0926   -7.0393    0.5709 H         1 IDE         0.0611 
     38 H7         -1.3773    1.2254   -1.5841 H         1 IDE         0.1584 
     39 H8         -0.0605   -0.0407   -0.0386 H         1 IDE         0.1480 
     40 H9         -0.4967   -2.3650    0.2827 H         1 IDE         0.1670 
     41 H10        -6.6939   -3.3346   -2.5891 H         1 IDE         0.1466 
     42 H11        -8.3430   -4.5699   -3.9542 H         1 IDE         0.1416 
     43 H12        -7.6066   -6.4401   -5.4075 H         1 IDE         0.1411 
     44 H13        -5.2102   -7.0745   -5.4945 H         1 IDE         0.1416 
     45 H14        -3.5509   -5.8481   -4.1350 H         1 IDE         0.1466 
     46 H15         0.6255  -11.2222   -2.9936 H         1 IDE         0.4986 
     47 H16         1.8482   -9.1252   -2.4816 H         1 IDE         0.0603 
     48 H17        -4.1820  -10.4986   -2.4235 H         1 IDE         0.0592 
     49 H18        -1.3538   -6.0231   -1.3410 H         1 IDE         0.4528 
@<TRIPOS>BOND
     1    1    2 1    
     2    1   33 1    
     3    1   34 1    
     4    1   35 1    
     5    2    3 1    
     6    2   36 1    
     7    2   37 1    
     8    3    4 1    
     9    3    5 1    
    10    3   23 1    
    11    5   16 ar   
    12    5    6 ar   
    13    6    7 ar   
    14    7   12 ar   
    15    7    8 ar   
    16    8    9 ar   
    17    8   14 ar   
    18    9   10 ar   
    19    9   13 1    
    20   10   11 ar   
    21   10   38 1    
    22   11   12 ar   
    23   11   39 1    
    24   12   40 1    
    25   14   15 2    
    26   14   16 ar   
    27   16   17 1    
    28   17   22 ar   
    29   17   18 ar   
    30   18   19 ar   
    31   18   41 1    
    32   19   20 ar   
    33   19   42 1    
    34   20   21 ar   
    35   20   43 1    
    36   21   22 ar   
    37   21   44 1    
    38   22   45 1    
    39   23   24 1    
    40   23   49 1    
    41   24   32 ar   
    42   24   25 ar   
    43   25   29 ar   
    44   25   26 ar   
    45   26   27 ar   
    46   26   30 ar   
    47   27   28 ar   
    48   27   46 1    
    49   28   29 ar   
    50   28   47 1    
    51   30   31 ar   
    52   31   48 1    
    53   31   32 ar   
@<TRIPOS>SUBSTRUCTURE
     1 IDE         1 GROUP             0       ****    0 ROOT    
@<TRIPOS>MOLECULE
5-fluoro-3-phenyl-2-[(1~{S})-1-(1~{H}-purin-6-ylamino)propyl]quinazolin-4-one
49   53    1
SMALL
USER_CHARGES


@<TRIPOS>ATOM
      1 C1         -5.2169   -5.2027    0.6501 C.3       1 IDE        -0.1004 
      2 C2         -3.9428   -5.9748    0.3377 C.3       1 IDE        -0.1043 
      3 C3         -3.5419   -5.8663   -1.1298 C.3       1 IDE         0.2145 
      4 H1         -4.3470   -6.3383   -1.7121 H         1 IDE         0.0663 
      5 C4         -3.2683   -4.4253   -1.5094 C.ar      1 IDE         0.4962 
      6 N1         -2.3187   -3.8375   -0.8483 N.2       1 IDE        -0.6351 
      7 C5         -2.0749   -2.4801   -1.0793 C.ar      1 IDE         0.2121 
      8 C6         -2.8343   -1.7339   -1.9804 C.ar      1 IDE        -0.2295 
      9 C7         -2.5804   -0.3703   -2.1710 C.ar      1 IDE         0.2029 
     10 C8         -1.5595    0.2509   -1.4530 C.ar      1 IDE        -0.1916 
     11 C9         -0.7949   -0.4854   -0.5514 C.ar      1 IDE        -0.0679 
     12 C10        -1.0526   -1.8443   -0.3653 C.ar      1 IDE        -0.1319 
     13 F1         -3.3014    0.3615   -3.0320 F         1 IDE        -0.1096 
     14 C11        -3.8945   -2.4175   -2.7506 C.ar      1 IDE         0.7171 
     15 O1         -4.5139   -1.7687   -3.5907 O.2       1 IDE        -0.5774 
     16 N2         -4.0511   -3.7931   -2.4786 N.pl3     1 IDE        -0.3243 
     17 C12        -5.0126   -4.5100   -3.2704 C.ar      1 IDE         0.0270 
     18 C13        -6.3602   -4.1531   -3.2219 C.ar      1 IDE        -0.1226 
     19 C14        -7.2937   -4.8476   -3.9912 C.ar      1 IDE        -0.1232 
     20 C15        -6.8797   -5.8990   -4.8090 C.ar      1 IDE        -0.1196 
     21 C16        -5.5321   -6.2560   -4.8574 C.ar      1 IDE        -0.1232 
     22 C17        -4.5986   -5.5615   -4.0881 C.ar      1 IDE        -0.1226 
     23 N3         -2.3139   -6.5538   -1.4218 N.pl3     1 IDE        -0.7695 
     24 C18        -2.2703   -7.8330   -1.7952 C.ar      1 IDE         0.4545 
     25 C19        -1.1113   -8.4941   -2.0743 C.ar      1 IDE        -0.2068 
     26 C20        -1.1078   -9.9051   -2.4826 C.ar      1 IDE         0.5739 
     27 N4          0.1130  -10.2980   -2.6883 N.2       1 IDE        -0.6486 
     28 C21         0.8509   -9.1521   -2.4137 C.ar      1 IDE         0.5270 
     29 N5          0.1923   -8.0842   -2.0546 N.pl3     1 IDE        -0.5856 
     30 N6         -2.2642  -10.6271   -2.6042 N.ar      1 IDE        -0.5884 
     31 C22        -3.3450   -9.9593   -2.3304 C.ar      1 IDE         0.5746 
     32 N7         -3.4154   -8.6422   -1.9425 N.ar      1 IDE        -0.7090 
     33 H2         -5.4606   -5.3135    1.7170 H         1 IDE         0.0470 
     34 H3         -6.0438   -5.5983    0.0420 H         1 IDE         0.0470 
     35 H4         -5.0670   -4.1382    0.4168 H         1 IDE         0.0470 
     36 H5         -3.1159   -5.5791    0.9457 H         1 IDE         0.0611 
     37 H6         -4.0926   -7.0393    0.5709 H         1 IDE         0.0611 
     38 H7         -1.3773    1.2254   -1.5841 H         1 IDE         0.1584 
     39 H8         -0.0605   -0.0407   -0.0386 H         1 IDE         0.1480 
     40 H9         -0.4967   -2.3650    0.2827 H         1 IDE         0.1670 
     41 H10        -6.6939   -3.3346   -2.5891 H         1 IDE         0.1466 
     42 H11        -8.3430   -4.5699   -3.9542 H         1 IDE         0.1416 
     43 H12        -7.6066   -6.4401   -5.4075 H         1 IDE         0.1411 
     44 H13        -5.2102   -7.0745   -5.4945 H         1 IDE         0.1416 
     45 H14        -3.5509   -5.8481   -4.1350 H         1 IDE         0.1466 
     46 H15         0.4394   -7.0497   -1.7739 H         1 IDE         0.4986 
     47 H16         1.8475   -9.1680   -2.4940 H         1 IDE         0.0603 
     48 H17        -4.1820  -10.4986   -2.4235 H         1 IDE         0.0592 
     49 H18        -1.3538   -6.0231   -1.3410 H         1 IDE         0.4528 
@<TRIPOS>BOND
     1    1    2 1    
     2    1   33 1    
     3    1   34 1    
     4    1   35 1    
     5    2    3 1    
     6    2   36 1    
     7    2   37 1    
     8    3    4 1    
     9    3    5 1    
    10    3   23 1    
    11    5   16 ar   
    12    5    6 ar   
    13    6    7 ar   
    14    7   12 ar   
    15    7    8 ar   
    16    8    9 ar   
    17    8   14 ar   
    18    9   10 ar   
    19    9   13 1    
    20   10   11 ar   
    21   10   38 1    
    22   11   12 ar   
    23   11   39 1    
    24   12   40 1    
    25   14   15 2    
    26   14   16 ar   
    27   16   17 1    
    28   17   22 ar   
    29   17   18 ar   
    30   18   19 ar   
    31   18   41 1    
    32   19   20 ar   
    33   19   42 1    
    34   20   21 ar   
    35   20   43 1    
    36   21   22 ar   
    37   21   44 1    
    38   22   45 1    
    39   23   24 1    
    40   23   49 1    
    41   24   32 ar   
    42   24   25 ar   
    43   25   29 ar   
    44   25   26 ar   
    45   26   27 ar   
    46   26   30 ar   
    47   27   28 ar   
    48   28   29 ar   
    49   28   47 1    
    50   29   46 1    
    51   30   31 ar   
    52   31   48 1    
    53   31   32 ar   
@<TRIPOS>SUBSTRUCTURE
     1 IDE         1 GROUP             0       ****    0 ROOT    
