5-fluoro-3-phenyl-2-[(1~{S})-1-(1~{H}-purin-6-ylamino)propyl]quinazolin-4-one
                    3D
 Structure written by MMmdl.
 49 53  0  0  1  0            999 V2000
   -5.2169   -5.2027    0.6501 C   0  0  0  0  0  0
   -3.9428   -5.9748    0.3377 C   0  0  0  0  0  0
   -3.5419   -5.8663   -1.1298 C   0  0  1  0  0  0
   -4.3470   -6.3383   -1.7121 H   0  0  0  0  0  0
   -3.2683   -4.4253   -1.5094 C   0  0  0  0  0  0
   -2.3187   -3.8375   -0.8483 N   0  0  0  0  0  0
   -2.0749   -2.4801   -1.0793 C   0  0  0  0  0  0
   -2.8343   -1.7339   -1.9804 C   0  0  0  0  0  0
   -2.5804   -0.3703   -2.1710 C   0  0  0  0  0  0
   -1.5595    0.2509   -1.4530 C   0  0  0  0  0  0
   -0.7949   -0.4854   -0.5514 C   0  0  0  0  0  0
   -1.0526   -1.8443   -0.3653 C   0  0  0  0  0  0
   -3.3014    0.3615   -3.0320 F   0  0  0  0  0  0
   -3.8945   -2.4175   -2.7506 C   0  0  0  0  0  0
   -4.5139   -1.7687   -3.5907 O   0  0  0  0  0  0
   -4.0511   -3.7931   -2.4786 N   0  0  0  0  0  0
   -5.0126   -4.5100   -3.2704 C   0  0  0  0  0  0
   -6.3602   -4.1531   -3.2219 C   0  0  0  0  0  0
   -7.2937   -4.8476   -3.9912 C   0  0  0  0  0  0
   -6.8797   -5.8990   -4.8090 C   0  0  0  0  0  0
   -5.5321   -6.2560   -4.8574 C   0  0  0  0  0  0
   -4.5986   -5.5615   -4.0881 C   0  0  0  0  0  0
   -2.3139   -6.5538   -1.4218 N   0  0  0  0  0  0
   -2.2703   -7.8330   -1.7952 C   0  0  0  0  0  0
   -1.1113   -8.4941   -2.0743 C   0  0  0  0  0  0
   -1.1078   -9.9051   -2.4826 C   0  0  0  0  0  0
    0.1130  -10.2980   -2.6883 N   0  0  0  0  0  0
    0.8509   -9.1521   -2.4137 C   0  0  0  0  0  0
    0.1923   -8.0842   -2.0546 N   0  0  0  0  0  0
   -2.2642  -10.6271   -2.6042 N   0  0  0  0  0  0
   -3.3450   -9.9593   -2.3304 C   0  0  0  0  0  0
   -3.4154   -8.6422   -1.9425 N   0  0  0  0  0  0
   -5.4606   -5.3135    1.7170 H   0  0  0  0  0  0
   -6.0438   -5.5983    0.0420 H   0  0  0  0  0  0
   -5.0670   -4.1382    0.4168 H   0  0  0  0  0  0
   -3.1159   -5.5791    0.9457 H   0  0  0  0  0  0
   -4.0926   -7.0393    0.5709 H   0  0  0  0  0  0
   -1.3773    1.2254   -1.5841 H   0  0  0  0  0  0
   -0.0605   -0.0407   -0.0386 H   0  0  0  0  0  0
   -0.4967   -2.3650    0.2827 H   0  0  0  0  0  0
   -6.6939   -3.3346   -2.5891 H   0  0  0  0  0  0
   -8.3430   -4.5699   -3.9542 H   0  0  0  0  0  0
   -7.6066   -6.4401   -5.4075 H   0  0  0  0  0  0
   -5.2102   -7.0745   -5.4945 H   0  0  0  0  0  0
   -3.5509   -5.8481   -4.1350 H   0  0  0  0  0  0
    0.6255  -11.2222   -2.9936 H   0  0  0  0  0  0
    1.8482   -9.1252   -2.4816 H   0  0  0  0  0  0
   -4.1820  -10.4986   -2.4235 H   0  0  0  0  0  0
   -1.3538   -6.0231   -1.3410 H   0  0  0  0  0  0
  1  2  1  0  0  0
  1 33  1  0  0  0
  1 34  1  0  0  0
  1 35  1  0  0  0
  2  3  1  0  0  0
  2 36  1  0  0  0
  2 37  1  0  0  0
  3  4  1  0  0  0
  3  5  1  0  0  0
  3 23  1  0  0  0
  5 16  1  0  0  0
  5  6  2  0  0  0
  6  7  1  0  0  0
  7 12  2  0  0  0
  7  8  1  0  0  0
  8  9  2  0  0  0
  8 14  1  0  0  0
  9 10  1  0  0  0
  9 13  1  0  0  0
 10 11  2  0  0  0
 10 38  1  0  0  0
 11 12  1  0  0  0
 11 39  1  0  0  0
 12 40  1  0  0  0
 14 15  2  0  0  0
 14 16  1  0  0  0
 16 17  1  0  0  0
 17 22  2  0  0  0
 17 18  1  0  0  0
 18 19  2  0  0  0
 18 41  1  0  0  0
 19 20  1  0  0  0
 19 42  1  0  0  0
 20 21  2  0  0  0
 20 43  1  0  0  0
 21 22  1  0  0  0
 21 44  1  0  0  0
 22 45  1  0  0  0
 23 24  1  0  0  0
 23 49  1  0  0  0
 24 32  1  0  0  0
 24 25  2  0  0  0
 25 29  1  0  0  0
 25 26  1  0  0  0
 26 27  1  0  0  0
 26 30  2  0  0  0
 27 28  1  0  0  0
 27 46  1  0  0  0
 28 29  2  0  0  0
 28 47  1  0  0  0
 30 31  1  0  0  0
 31 48  1  0  0  0
 31 32  2  0  0  0
M  END
> <s_m_source_file>
/cbio/jclab/home/andrrizzi/epik_inhibitors/output/Idelalisib/Idelalisib-input.mol2

> <i_m_source_file_index>
1

> <r_lp_tautomer_probability>
0.95558173703543

> <r_epik_Ionization_Penalty>
  0.0030

> <r_epik_Ionization_Penalty_Charging>
  0.0000

> <r_epik_Ionization_Penalty_Neutral>
  0.0030

> <r_epik_State_Penalty>
  0.0207

> <i_epik_Tot_Q>
0

$$$$
5-fluoro-3-phenyl-2-[(1~{S})-1-(1~{H}-purin-6-ylamino)propyl]quinazolin-4-one
                    3D
 Structure written by MMmdl.
 49 53  0  0  1  0            999 V2000
   -5.2169   -5.2027    0.6501 C   0  0  0  0  0  0
   -3.9428   -5.9748    0.3377 C   0  0  0  0  0  0
   -3.5419   -5.8663   -1.1298 C   0  0  1  0  0  0
   -4.3470   -6.3383   -1.7121 H   0  0  0  0  0  0
   -3.2683   -4.4253   -1.5094 C   0  0  0  0  0  0
   -2.3187   -3.8375   -0.8483 N   0  0  0  0  0  0
   -2.0749   -2.4801   -1.0793 C   0  0  0  0  0  0
   -2.8343   -1.7339   -1.9804 C   0  0  0  0  0  0
   -2.5804   -0.3703   -2.1710 C   0  0  0  0  0  0
   -1.5595    0.2509   -1.4530 C   0  0  0  0  0  0
   -0.7949   -0.4854   -0.5514 C   0  0  0  0  0  0
   -1.0526   -1.8443   -0.3653 C   0  0  0  0  0  0
   -3.3014    0.3615   -3.0320 F   0  0  0  0  0  0
   -3.8945   -2.4175   -2.7506 C   0  0  0  0  0  0
   -4.5139   -1.7687   -3.5907 O   0  0  0  0  0  0
   -4.0511   -3.7931   -2.4786 N   0  0  0  0  0  0
   -5.0126   -4.5100   -3.2704 C   0  0  0  0  0  0
   -6.3602   -4.1531   -3.2219 C   0  0  0  0  0  0
   -7.2937   -4.8476   -3.9912 C   0  0  0  0  0  0
   -6.8797   -5.8990   -4.8090 C   0  0  0  0  0  0
   -5.5321   -6.2560   -4.8574 C   0  0  0  0  0  0
   -4.5986   -5.5615   -4.0881 C   0  0  0  0  0  0
   -2.3139   -6.5538   -1.4218 N   0  0  0  0  0  0
   -2.2703   -7.8330   -1.7952 C   0  0  0  0  0  0
   -1.1113   -8.4941   -2.0743 C   0  0  0  0  0  0
   -1.1078   -9.9051   -2.4826 C   0  0  0  0  0  0
    0.1130  -10.2980   -2.6883 N   0  0  0  0  0  0
    0.8509   -9.1521   -2.4137 C   0  0  0  0  0  0
    0.1923   -8.0842   -2.0546 N   0  0  0  0  0  0
   -2.2642  -10.6271   -2.6042 N   0  0  0  0  0  0
   -3.3450   -9.9593   -2.3304 C   0  0  0  0  0  0
   -3.4154   -8.6422   -1.9425 N   0  0  0  0  0  0
   -5.4606   -5.3135    1.7170 H   0  0  0  0  0  0
   -6.0438   -5.5983    0.0420 H   0  0  0  0  0  0
   -5.0670   -4.1382    0.4168 H   0  0  0  0  0  0
   -3.1159   -5.5791    0.9457 H   0  0  0  0  0  0
   -4.0926   -7.0393    0.5709 H   0  0  0  0  0  0
   -1.3773    1.2254   -1.5841 H   0  0  0  0  0  0
   -0.0605   -0.0407   -0.0386 H   0  0  0  0  0  0
   -0.4967   -2.3650    0.2827 H   0  0  0  0  0  0
   -6.6939   -3.3346   -2.5891 H   0  0  0  0  0  0
   -8.3430   -4.5699   -3.9542 H   0  0  0  0  0  0
   -7.6066   -6.4401   -5.4075 H   0  0  0  0  0  0
   -5.2102   -7.0745   -5.4945 H   0  0  0  0  0  0
   -3.5509   -5.8481   -4.1350 H   0  0  0  0  0  0
    0.4394   -7.0497   -1.7739 H   0  0  0  0  0  0
    1.8475   -9.1680   -2.4940 H   0  0  0  0  0  0
   -4.1820  -10.4986   -2.4235 H   0  0  0  0  0  0
   -1.3538   -6.0231   -1.3410 H   0  0  0  0  0  0
  1  2  1  0  0  0
  1 33  1  0  0  0
  1 34  1  0  0  0
  1 35  1  0  0  0
  2  3  1  0  0  0
  2 36  1  0  0  0
  2 37  1  0  0  0
  3  4  1  0  0  0
  3  5  1  0  0  0
  3 23  1  0  0  0
  5 16  1  0  0  0
  5  6  2  0  0  0
  6  7  1  0  0  0
  7 12  2  0  0  0
  7  8  1  0  0  0
  8  9  2  0  0  0
  8 14  1  0  0  0
  9 10  1  0  0  0
  9 13  1  0  0  0
 10 11  2  0  0  0
 10 38  1  0  0  0
 11 12  1  0  0  0
 11 39  1  0  0  0
 12 40  1  0  0  0
 14 15  2  0  0  0
 14 16  1  0  0  0
 16 17  1  0  0  0
 17 22  2  0  0  0
 17 18  1  0  0  0
 18 19  2  0  0  0
 18 41  1  0  0  0
 19 20  1  0  0  0
 19 42  1  0  0  0
 20 21  2  0  0  0
 20 43  1  0  0  0
 21 22  1  0  0  0
 21 44  1  0  0  0
 22 45  1  0  0  0
 23 24  1  0  0  0
 23 49  1  0  0  0
 24 32  1  0  0  0
 24 25  2  0  0  0
 25 29  1  0  0  0
 25 26  1  0  0  0
 26 27  1  0  0  0
 26 30  2  0  0  0
 27 28  2  0  0  0
 28 29  1  0  0  0
 28 47  1  0  0  0
 29 46  1  0  0  0
 30 31  1  0  0  0
 31 48  1  0  0  0
 31 32  2  0  0  0
M  END
> <s_m_source_file>
/cbio/jclab/home/andrrizzi/epik_inhibitors/output/Idelalisib/Idelalisib-input.mol2

> <i_m_source_file_index>
1

> <r_lp_tautomer_probability>
0.0419191988452545

> <r_epik_Ionization_Penalty>
  0.0028

> <r_epik_Ionization_Penalty_Charging>
  0.0000

> <r_epik_Ionization_Penalty_Neutral>
  0.0028

> <r_epik_State_Penalty>
  1.9974

> <i_epik_Tot_Q>
0

$$$$
