@<TRIPOS>MOLECULE
5-fluoro-3-phenyl-2-[(1~{S})-1-(1~{H}-purin-6-ylamino)propyl]quinazolin-4-one
   49    53     0     0     0
SMALL
USER_CHARGES

@<TRIPOS>ATOM
      1 C1         -5.2180   -5.1996    0.6441 C.3       1 IDE        -0.1002
      2 C2         -3.9438   -5.9721    0.3330 C.3       1 IDE        -0.1058
      3 C3         -3.5422   -5.8650   -1.1344 C.3       1 IDE         0.2139
      4 H1         -4.3187   -6.2585   -1.7978 H         1 IDE         0.0676
      5 C4         -3.2684   -4.4243   -1.5152 C.2       1 IDE         0.4938
      6 N1         -2.3191   -3.8360   -0.8542 N.2       1 IDE        -0.6356
      7 C5         -2.0751   -2.4788   -1.0864 C.ar      1 IDE         0.2108
      8 C6         -2.8340   -1.7334   -1.9885 C.ar      1 IDE        -0.2275
      9 C7         -2.5800   -0.3700   -2.1802 C.ar      1 IDE         0.2034
     10 C8         -1.5594    0.2518   -1.4623 C.ar      1 IDE        -0.1924
     11 C9         -0.7952   -0.4837   -0.5597 C.ar      1 IDE        -0.0680
     12 C10        -1.0530   -1.8424   -0.3725 C.ar      1 IDE        -0.1316
     13 F1         -3.3006    0.3611   -3.0422 F         1 IDE        -0.1105
     14 C11        -3.8939   -2.4176   -2.7585 C.2       1 IDE         0.7173
     15 O1         -4.5129   -1.7696   -3.5995 O.2       1 IDE        -0.5771
     16 N2         -4.0507   -3.7930   -2.4853 N.am      1 IDE        -0.3237
     17 C12        -5.0119   -4.5105   -3.2769 C.ar      1 IDE         0.0285
     18 C13        -6.3595   -4.1535   -3.2293 C.ar      1 IDE        -0.1232
     19 C14        -7.2927   -4.8487   -3.9984 C.ar      1 IDE        -0.1230
     20 C15        -6.8784   -5.9009   -4.8150 C.ar      1 IDE        -0.1199
     21 C16        -5.5308   -6.2580   -4.8625 C.ar      1 IDE        -0.1230
     22 C17        -4.5976   -5.5628   -4.0934 C.ar      1 IDE        -0.1232
     23 N3         -2.3142   -6.5528   -1.4252 N.pl3     1 IDE        -0.7651
     24 C18        -2.2705   -7.8323   -1.7974 C.2       1 IDE         0.4550
     25 C19        -1.1114   -8.4938   -2.0754 C.2       1 IDE        -0.2082
     26 C20        -1.1078   -9.9051   -2.4826 C.2       1 IDE         0.5756
     27 N4          0.1130  -10.2980   -2.6883 N.2       1 IDE        -0.6495
     28 C21         0.8509   -9.1522   -2.4133 C.2       1 IDE         0.5273
     29 N5          0.1922   -8.0840   -2.0554 N.2       1 IDE        -0.5848
     30 N6         -2.2642  -10.6271   -2.6042 N.2       1 IDE        -0.5899
     31 C22        -3.3450   -9.9593   -2.3304 C.2       1 IDE         0.5751
     32 N7         -3.4156   -8.6416   -1.9447 N.pl3     1 IDE        -0.7100
     33 H2         -5.4840   -5.2925    1.7019 H         1 IDE         0.0467
     34 H3         -5.0781   -4.1367    0.4222 H         1 IDE         0.0467
     35 H4         -6.0592   -5.5603    0.0438 H         1 IDE         0.0467
     36 H5         -4.0994   -7.0261    0.5947 H         1 IDE         0.0608
     37 H6         -3.1364   -5.6055    0.9797 H         1 IDE         0.0608
     38 H7         -1.3617    1.3100   -1.6059 H         1 IDE         0.1577
     39 H8          0.0023   -0.0008   -0.0026 H         1 IDE         0.1485
     40 H9         -0.4468   -2.4048    0.3338 H         1 IDE         0.1673
     41 H10        -6.6935   -3.3344   -2.5974 H         1 IDE         0.1460
     42 H11        -8.3420   -4.5709   -3.9621 H         1 IDE         0.1418
     43 H12        -7.6051   -6.4425   -5.4134 H         1 IDE         0.1413
     44 H13        -5.2087   -7.0771   -5.4987 H         1 IDE         0.1418
     45 H14        -3.5499   -5.8495   -4.1396 H         1 IDE         0.1460
     46 H15        -1.4215   -6.0582   -1.3490 H         1 IDE         0.4993
     47 H16         1.9481   -9.1667   -2.5001 H         1 IDE         0.0604
     48 H17        -4.3338  -10.4397   -2.3949 H         1 IDE         0.0602
     49 H18        -4.3008   -8.1878   -1.7476 H         1 IDE         0.4517
@<TRIPOS>BOND
     1    1    2 1
     2    2    3 1
     3    3    4 1
     4    3    5 1
     5    5   16 1
     6    5    6 2
     7    6    7 1
     8    7   12 ar
     9    7    8 ar
    10    8    9 ar
    11    9   10 ar
    12   10   11 ar
    13   11   12 ar
    14    9   13 1
    15    8   14 1
    16   14   15 2
    17   14   16 am
    18   16   17 1
    19   17   22 ar
    20   17   18 ar
    21   18   19 ar
    22   19   20 ar
    23   20   21 ar
    24   21   22 ar
    25    3   23 1
    26   23   24 1
    27   24   32 1
    28   24   25 2
    29   25   29 1
    30   25   26 1
    31   26   27 2
    32   27   28 1
    33   28   29 2
    34   26   30 1
    35   30   31 2
    36   31   32 1
    37    1   33 1
    38    1   34 1
    39    1   35 1
    40    2   36 1
    41    2   37 1
    42   10   38 1
    43   11   39 1
    44   12   40 1
    45   18   41 1
    46   19   42 1
    47   20   43 1
    48   21   44 1
    49   22   45 1
    50   23   46 1
    51   28   47 1
    52   31   48 1
    53   32   49 1
