@<TRIPOS>MOLECULE
5-fluoro-3-phenyl-2-[1-(9~{H}-purin-6-ylamino)propyl]quinazolin-4-one
   49    53     1     0     0
SMALL
USER_CHARGES

@<TRIPOS>ATOM
      1 C13        -3.0990  -14.1880   23.6450 C.ar      1 40L        -0.1185
      2 C15        -2.7890  -16.3660   24.6000 C.ar      1 40L        -0.1210
      3 C17        -4.5080  -16.0300   22.9510 C.ar      1 40L        -0.1185
      4 C20        -7.5970  -14.5410   23.5990 C.3       1 40L        -0.1048
      5 C21        -8.7690  -14.3380   22.6510 C.3       1 40L        -0.0958
      6 C24        -7.0420   -9.9920   25.2280 C.ar      1 40L        -0.2315
      7 C01        -4.9980  -11.2850   17.7880 C.ar      1 40L        -0.2004
      8 C02        -6.1650  -10.6730   18.2330 C.ar      1 40L        -0.0687
      9 C03        -6.6670  -10.9930   19.5000 C.ar      1 40L        -0.1399
     10 C04        -6.0110  -11.9180   20.3270 C.ar      1 40L         0.2181
     11 C05        -4.8590  -12.5380   19.8720 C.ar      1 40L        -0.2324
     12 C06        -4.3640  -12.2210   18.6040 C.ar      1 40L         0.2057
     13 F07        -3.2470  -12.8160   18.1730 F         1 40L        -0.1118
     14 N08        -6.5270  -12.2030   21.5840 N.ar      1 40L        -0.6500
     15 C09        -4.1940  -13.5210   20.7630 C.ar      1 40L         0.7161
     16 O10        -3.1750  -14.0670   20.4020 O.2       1 40L        -0.5841
     17 N11        -4.8070  -13.7570   21.9950 N.am      1 40L        -0.3191
     18 C12        -4.1550  -14.6760   22.8700 C.ar      1 40L         0.0267
     19 C14        -2.4080  -15.0300   24.5110 C.ar      1 40L        -0.1222
     20 C16        -3.8270  -16.8710   23.8240 C.ar      1 40L        -0.1222
     21 C18        -5.9620  -13.0730   22.3480 C.ar      1 40L         0.4975
     22 C19        -6.6120  -13.3560   23.7120 C.3       1 40L         0.2237
     23 N22        -7.2550  -12.1070   24.1100 N.pl3     1 40L        -0.8573
     24 C23        -6.4770  -11.1650   24.7280 C.ar      1 40L         0.7739
     25 C25        -6.2030   -9.0860   25.8370 C.ar      1 40L         0.5816
     26 N26        -4.8690   -9.1820   26.0140 N.ar      1 40L        -0.7312
     27 C27        -4.4110  -10.3460   25.5000 C.ar      1 40L         0.6868
     28 N28        -5.1190  -11.3250   24.8750 N.ar      1 40L        -0.7987
     29 N29        -8.3410   -9.5400   25.2300 N.ar      1 40L        -0.5380
     30 C30        -8.2750   -8.3860   25.8440 C.ar      1 40L         0.5118
     31 N31        -7.0130   -8.0650   26.2290 N.pl3     1 40L        -0.7752
     32 H1         -2.8170  -13.1480   23.5710 H         1 40L         0.1473
     33 H2         -2.2700  -17.0220   25.2830 H         1 40L         0.1380
     34 H3         -5.3070  -16.4190   22.3370 H         1 40L         0.1473
     35 H4         -7.0602  -15.4309   23.2386 H         1 40L         0.0658
     36 H5         -8.0330  -14.7509   24.5869 H         1 40L         0.0658
     37 H6         -9.4001  -15.2389   22.6501 H         1 40L         0.0400
     38 H7         -8.3908  -14.1542   21.6346 H         1 40L         0.0400
     39 H8         -9.3636  -13.4741   22.9828 H         1 40L         0.0400
     40 H9         -4.5870  -11.0380   16.8200 H         1 40L         0.1549
     41 H10        -6.6790   -9.9580   17.6070 H         1 40L         0.1438
     42 H11        -7.5740  -10.5200   19.8470 H         1 40L         0.1613
     43 H12        -1.5890  -14.6530   25.1050 H         1 40L         0.1399
     44 H13        -4.1030  -17.9120   23.8990 H         1 40L         0.1399
     45 H14        -5.8934  -13.6110   24.5048 H         1 40L         0.0997
     46 H15        -8.3255  -11.9515   23.9103 H         1 40L         0.4769
     47 H16        -3.3500  -10.5200   25.5980 H         1 40L         0.0513
     48 H18        -9.1330   -7.7560   26.0250 H         1 40L         0.0741
     49 H49        -6.5885   -7.1968   26.7545 H         1 40L         0.4735
@<TRIPOS>BOND
     1    1   19 ar
     2    1   32 1
     3    1   18 ar
     4    2   33 1
     5    2   19 ar
     6    2   20 ar
     7    3   20 ar
     8    3   34 1
     9    3   18 ar
    10    4   22 1
    11    4   35 1
    12    4   36 1
    13    4    5 1
    14    5   37 1
    15    5   38 1
    16    5   39 1
    17    6   29 ar
    18    6   25 ar
    19    6   24 ar
    20    7    8 ar
    21    7   12 ar
    22    7   40 1
    23    8    9 ar
    24    8   41 1
    25    9   10 ar
    26    9   42 1
    27   10   14 ar
    28   10   11 ar
    29   11   15 ar
    30   11   12 ar
    31   12   13 1
    32   14   21 ar
    33   15   17 ar
    34   15   16 2
    35   17   21 ar
    36   17   18 1
    37   19   43 1
    38   20   44 1
    39   21   22 1
    40   22   23 1
    41   22   45 1
    42   23   24 1
    43   23   46 1
    44   24   28 ar
    45   25   26 ar
    46   25   31 ar
    47   26   27 ar
    48   27   47 1
    49   27   28 ar
    50   29   30 ar
    51   30   31 ar
    52   30   48 1
    53   31   49 1
@<TRIPOS>SUBSTRUCTURE
     1 40L         1 GROUP   0 A     ****
@<TRIPOS>MOLECULE
5-fluoro-3-phenyl-2-[1-(7~{H}-purin-6-ylamino)propyl]quinazolin-4-one
   49    53     1     0     0
SMALL
USER_CHARGES

@<TRIPOS>ATOM
      1 C13        -3.0990  -14.1880   23.6450 C.ar      1 40L        -0.1183
      2 C15        -2.7890  -16.3660   24.6000 C.ar      1 40L        -0.1195
      3 C17        -4.5080  -16.0300   22.9510 C.ar      1 40L        -0.1183
      4 C20        -7.5970  -14.5410   23.5990 C.3       1 40L        -0.1106
      5 C21        -8.7690  -14.3380   22.6510 C.3       1 40L        -0.0954
      6 C24        -7.0420   -9.9920   25.2280 C.ar      1 40L        -0.2607
      7 C01        -4.9980  -11.2850   17.7880 C.ar      1 40L        -0.1996
      8 C02        -6.1650  -10.6730   18.2330 C.ar      1 40L        -0.0661
      9 C03        -6.6670  -10.9930   19.5000 C.ar      1 40L        -0.1465
     10 C04        -6.0110  -11.9180   20.3270 C.ar      1 40L         0.2192
     11 C05        -4.8590  -12.5380   19.8720 C.ar      1 40L        -0.2321
     12 C06        -4.3640  -12.2210   18.6040 C.ar      1 40L         0.2085
     13 F07        -3.2470  -12.8160   18.1730 F         1 40L        -0.1097
     14 N08        -6.5270  -12.2030   21.5840 N.ar      1 40L        -0.6647
     15 C09        -4.1940  -13.5210   20.7630 C.ar      1 40L         0.7145
     16 O10        -3.1750  -14.0670   20.4020 O.2       1 40L        -0.5792
     17 N11        -4.8070  -13.7570   21.9950 N.am      1 40L        -0.3172
     18 C12        -4.1550  -14.6760   22.8700 C.ar      1 40L         0.0231
     19 C14        -2.4080  -15.0300   24.5110 C.ar      1 40L        -0.1213
     20 C16        -3.8270  -16.8710   23.8240 C.ar      1 40L        -0.1213
     21 C18        -5.9620  -13.0730   22.3480 C.ar      1 40L         0.5042
     22 C19        -6.6120  -13.3560   23.7120 C.3       1 40L         0.2294
     23 N22        -7.2550  -12.1070   24.1100 N.pl3     1 40L        -0.8830
     24 C23        -6.4770  -11.1650   24.7280 C.ar      1 40L         0.7394
     25 C25        -6.2030   -9.0860   25.8370 C.ar      1 40L         0.5788
     26 N26        -4.8690   -9.1820   26.0140 N.ar      1 40L        -0.6633
     27 C27        -4.4110  -10.3460   25.5000 C.ar      1 40L         0.6532
     28 N28        -5.1190  -11.3250   24.8750 N.ar      1 40L        -0.7715
     29 N29        -8.3410   -9.5400   25.2300 N.pl3     1 40L        -0.6563
     30 C30        -8.2750   -8.3860   25.8440 C.ar      1 40L         0.5472
     31 N31        -7.0130   -8.0650   26.2290 N.ar      1 40L        -0.6278
     32 H1         -2.8170  -13.1480   23.5710 H         1 40L         0.1473
     33 H2         -2.2700  -17.0220   25.2830 H         1 40L         0.1392
     34 H3         -5.3070  -16.4190   22.3370 H         1 40L         0.1473
     35 H4         -7.0602  -15.4309   23.2386 H         1 40L         0.0691
     36 H5         -8.0330  -14.7509   24.5869 H         1 40L         0.0691
     37 H6         -9.4001  -15.2389   22.6501 H         1 40L         0.0383
     38 H7         -8.3908  -14.1542   21.6346 H         1 40L         0.0383
     39 H8         -9.3636  -13.4741   22.9828 H         1 40L         0.0383
     40 H9         -4.5870  -11.0380   16.8200 H         1 40L         0.1569
     41 H10        -6.6790   -9.9580   17.6070 H         1 40L         0.1440
     42 H11        -7.5740  -10.5200   19.8470 H         1 40L         0.1511
     43 H12        -1.5890  -14.6530   25.1050 H         1 40L         0.1414
     44 H13        -4.1030  -17.9120   23.8990 H         1 40L         0.1414
     45 H14        -5.8934  -13.6110   24.5048 H         1 40L         0.1045
     46 H15        -8.3255  -11.9515   23.9103 H         1 40L         0.4456
     47 H16        -3.3500  -10.5200   25.5980 H         1 40L         0.0527
     48 H17        -9.1352  -10.1467   24.7705 H         1 40L         0.4661
     49 H18        -9.1330   -7.7560   26.0250 H         1 40L         0.0744
@<TRIPOS>BOND
     1    1   19 ar
     2    1   32 1
     3    1   18 ar
     4    2   33 1
     5    2   19 ar
     6    2   20 ar
     7    3   20 ar
     8    3   34 1
     9    3   18 ar
    10    4   22 1
    11    4   35 1
    12    4   36 1
    13    4    5 1
    14    5   37 1
    15    5   38 1
    16    5   39 1
    17    6   29 ar
    18    6   25 ar
    19    6   24 ar
    20    7    8 ar
    21    7   12 ar
    22    7   40 1
    23    8    9 ar
    24    8   41 1
    25    9   10 ar
    26    9   42 1
    27   10   14 ar
    28   10   11 ar
    29   11   15 ar
    30   11   12 ar
    31   12   13 1
    32   14   21 ar
    33   15   17 ar
    34   15   16 2
    35   17   21 ar
    36   17   18 1
    37   19   43 1
    38   20   44 1
    39   21   22 1
    40   22   23 1
    41   22   45 1
    42   23   24 1
    43   23   46 1
    44   24   28 ar
    45   25   26 ar
    46   25   31 ar
    47   26   27 ar
    48   27   47 1
    49   27   28 ar
    50   29   30 ar
    51   29   48 1
    52   30   31 ar
    53   30   49 1
@<TRIPOS>SUBSTRUCTURE
     1 40L         1 GROUP   0 A     ****
@<TRIPOS>MOLECULE
1-(5-fluoro-4-oxo-3-phenyl-quinazolin-2-yl)propyl-(3~{H}-purin-7-id-6-ylidene)ammonium
   49    53     1     0     0
SMALL
USER_CHARGES

@<TRIPOS>ATOM
      1 C13        -3.0990  -14.1880   23.6450 C.ar      1 40L        -0.1197
      2 C15        -2.7890  -16.3660   24.6000 C.ar      1 40L        -0.1214
      3 C17        -4.5080  -16.0300   22.9510 C.ar      1 40L        -0.1197
      4 C20        -7.5970  -14.5410   23.5990 C.3       1 40L        -0.1043
      5 C21        -8.7690  -14.3380   22.6510 C.3       1 40L        -0.0980
      6 C24        -7.0420   -9.9920   25.2280 C.ar      1 40L         0.0470
      7 C01        -4.9980  -11.2850   17.7880 C.ar      1 40L        -0.1967
      8 C02        -6.1650  -10.6730   18.2330 C.ar      1 40L        -0.0682
      9 C03        -6.6670  -10.9930   19.5000 C.ar      1 40L        -0.1364
     10 C04        -6.0110  -11.9180   20.3270 C.ar      1 40L         0.2151
     11 C05        -4.8590  -12.5380   19.8720 C.ar      1 40L        -0.2313
     12 C06        -4.3640  -12.2210   18.6040 C.ar      1 40L         0.2030
     13 F07        -3.2470  -12.8160   18.1730 F         1 40L        -0.1116
     14 N08        -6.5270  -12.2030   21.5840 N.ar      1 40L        -0.6435
     15 C09        -4.1940  -13.5210   20.7630 C.ar      1 40L         0.7181
     16 O10        -3.1750  -14.0670   20.4020 O.2       1 40L        -0.5807
     17 N11        -4.8070  -13.7570   21.9950 N.am      1 40L        -0.3218
     18 C12        -4.1550  -14.6760   22.8700 C.ar      1 40L         0.0277
     19 C14        -2.4080  -15.0300   24.5110 C.ar      1 40L        -0.1220
     20 C16        -3.8270  -16.8710   23.8240 C.ar      1 40L        -0.1220
     21 C18        -5.9620  -13.0730   22.3480 C.ar      1 40L         0.4966
     22 C19        -6.6120  -13.3560   23.7120 C.3       1 40L         0.0384
     23 N22        -7.2550  -12.1070   24.1100 N.pl3     1 40L        -0.3633
     24 C23        -6.4770  -11.1650   24.7280 C.ar      1 40L         0.5046
     25 C25        -6.2030   -9.0860   25.8370 C.ar      1 40L         0.4484
     26 N26        -4.8690   -9.1820   26.0140 N.pl3     1 40L        -0.7371
     27 C27        -4.4110  -10.3460   25.5000 C.ar      1 40L         0.6541
     28 N28        -5.1190  -11.3250   24.8750 N.ar      1 40L        -0.7592
     29 N29        -8.3410   -9.5400   25.2300 N.ar      1 40L        -0.6804
     30 C30        -8.2750   -8.3860   25.8440 C.ar      1 40L         0.5586
     31 N31        -7.0130   -8.0650   26.2290 N.ar      1 40L        -0.7252
     32 H1         -2.8170  -13.1480   23.5710 H         1 40L         0.1469
     33 H2         -2.2700  -17.0220   25.2830 H         1 40L         0.1385
     34 H3         -5.3070  -16.4190   22.3370 H         1 40L         0.1469
     35 H4         -7.0602  -15.4309   23.2386 H         1 40L         0.0649
     36 H5         -8.0330  -14.7509   24.5869 H         1 40L         0.0649
     37 H6         -9.4001  -15.2389   22.6501 H         1 40L         0.0422
     38 H7         -8.3908  -14.1542   21.6346 H         1 40L         0.0422
     39 H8         -9.3636  -13.4741   22.9828 H         1 40L         0.0422
     40 H9         -4.5870  -11.0380   16.8200 H         1 40L         0.1559
     41 H10        -6.6790   -9.9580   17.6070 H         1 40L         0.1454
     42 H11        -7.5740  -10.5200   19.8470 H         1 40L         0.1644
     43 H12        -1.5890  -14.6530   25.1050 H         1 40L         0.1398
     44 H13        -4.1030  -17.9120   23.8990 H         1 40L         0.1398
     45 H14        -5.8934  -13.6110   24.5048 H         1 40L         0.0982
     46 H16        -3.3500  -10.5200   25.5980 H         1 40L         0.0611
     47 H18        -9.1330   -7.7560   26.0250 H         1 40L         0.0536
     48 H48        -4.3214   -8.3721   26.5182 H         1 40L         0.4711
     49 H49        -8.3219  -11.9077   23.9308 H         1 40L         0.3328
@<TRIPOS>BOND
     1    1   19 ar
     2    1   32 1
     3    1   18 ar
     4    2   33 1
     5    2   19 ar
     6    2   20 ar
     7    3   20 ar
     8    3   34 1
     9    3   18 ar
    10    4   22 1
    11    4   35 1
    12    4   36 1
    13    4    5 1
    14    5   37 1
    15    5   38 1
    16    5   39 1
    17    6   29 ar
    18    6   25 ar
    19    6   24 ar
    20    7    8 ar
    21    7   12 ar
    22    7   40 1
    23    8    9 ar
    24    8   41 1
    25    9   10 ar
    26    9   42 1
    27   10   14 ar
    28   10   11 ar
    29   11   15 ar
    30   11   12 ar
    31   12   13 1
    32   14   21 ar
    33   15   17 ar
    34   15   16 2
    35   17   21 ar
    36   17   18 1
    37   19   43 1
    38   20   44 1
    39   21   22 1
    40   22   23 1
    41   22   45 1
    42   23   24 2
    43   23   49 1
    44   24   28 ar
    45   25   26 ar
    46   25   31 ar
    47   26   27 ar
    48   26   48 1
    49   27   46 1
    50   27   28 ar
    51   29   30 ar
    52   30   31 ar
    53   30   47 1
@<TRIPOS>SUBSTRUCTURE
     1 40L         1 GROUP   0 A     ****
@<TRIPOS>MOLECULE
5-fluoro-3-phenyl-2-[1-(1~{H}-purin-6-ylamino)propyl]quinazolin-4-one
   49    53     1     0     0
SMALL
USER_CHARGES

@<TRIPOS>ATOM
      1 C13        -3.0990  -14.1880   23.6450 C.ar      1 40L        -0.1250
      2 C15        -2.7890  -16.3660   24.6000 C.ar      1 40L        -0.1201
      3 C17        -4.5080  -16.0300   22.9510 C.ar      1 40L        -0.1250
      4 C20        -7.5970  -14.5410   23.5990 C.3       1 40L        -0.1010
      5 C21        -8.7690  -14.3380   22.6510 C.3       1 40L        -0.0973
      6 C24        -7.0420   -9.9920   25.2280 C.ar      1 40L        -0.2074
      7 C01        -4.9980  -11.2850   17.7880 C.ar      1 40L        -0.1920
      8 C02        -6.1650  -10.6730   18.2330 C.ar      1 40L        -0.0670
      9 C03        -6.6670  -10.9930   19.5000 C.ar      1 40L        -0.1317
     10 C04        -6.0110  -11.9180   20.3270 C.ar      1 40L         0.2092
     11 C05        -4.8590  -12.5380   19.8720 C.ar      1 40L        -0.2273
     12 C06        -4.3640  -12.2210   18.6040 C.ar      1 40L         0.2028
     13 F07        -3.2470  -12.8160   18.1730 F         1 40L        -0.1105
     14 N08        -6.5270  -12.2030   21.5840 N.ar      1 40L        -0.6332
     15 C09        -4.1940  -13.5210   20.7630 C.ar      1 40L         0.7189
     16 O10        -3.1750  -14.0670   20.4020 O.2       1 40L        -0.5775
     17 N11        -4.8070  -13.7570   21.9950 N.am      1 40L        -0.3239
     18 C12        -4.1550  -14.6760   22.8700 C.ar      1 40L         0.0284
     19 C14        -2.4080  -15.0300   24.5110 C.ar      1 40L        -0.1217
     20 C16        -3.8270  -16.8710   23.8240 C.ar      1 40L        -0.1217
     21 C18        -5.9620  -13.0730   22.3480 C.ar      1 40L         0.4888
     22 C19        -6.6120  -13.3560   23.7120 C.3       1 40L         0.2111
     23 N22        -7.2550  -12.1070   24.1100 N.pl3     1 40L        -0.7621
     24 C23        -6.4770  -11.1650   24.7280 C.ar      1 40L         0.4487
     25 C25        -6.2030   -9.0860   25.8370 C.ar      1 40L         0.5770
     26 N26        -4.8690   -9.1820   26.0140 N.ar      1 40L        -0.5908
     27 C27        -4.4110  -10.3460   25.5000 C.ar      1 40L         0.5774
     28 N28        -5.1190  -11.3250   24.8750 N.pl3     1 40L        -0.7087
     29 N29        -8.3410   -9.5400   25.2300 N.ar      1 40L        -0.5851
     30 C30        -8.2750   -8.3860   25.8440 C.ar      1 40L         0.5282
     31 N31        -7.0130   -8.0650   26.2290 N.ar      1 40L        -0.6489
     32 H1         -2.8170  -13.1480   23.5710 H         1 40L         0.1469
     33 H2         -2.2700  -17.0220   25.2830 H         1 40L         0.1415
     34 H3         -5.3070  -16.4190   22.3370 H         1 40L         0.1469
     35 H4         -7.0602  -15.4309   23.2386 H         1 40L         0.0596
     36 H5         -8.0330  -14.7509   24.5869 H         1 40L         0.0596
     37 H6         -9.4001  -15.2389   22.6501 H         1 40L         0.0463
     38 H7         -8.3908  -14.1542   21.6346 H         1 40L         0.0463
     39 H8         -9.3636  -13.4741   22.9828 H         1 40L         0.0463
     40 H9         -4.5870  -11.0380   16.8200 H         1 40L         0.1580
     41 H10        -6.6790   -9.9580   17.6070 H         1 40L         0.1486
     42 H11        -7.5740  -10.5200   19.8470 H         1 40L         0.1667
     43 H12        -1.5890  -14.6530   25.1050 H         1 40L         0.1413
     44 H13        -4.1030  -17.9120   23.8990 H         1 40L         0.1413
     45 H14        -5.8934  -13.6110   24.5048 H         1 40L         0.0664
     46 H16        -3.3500  -10.5200   25.5980 H         1 40L         0.0602
     47 H18        -9.1330   -7.7560   26.0250 H         1 40L         0.0601
     48 H48        -4.6271  -12.2307   24.4907 H         1 40L         0.4518
     49 H49        -8.3255  -11.9515   23.9103 H         1 40L         0.4995
@<TRIPOS>BOND
     1    1   19 ar
     2    1   32 1
     3    1   18 ar
     4    2   33 1
     5    2   19 ar
     6    2   20 ar
     7    3   20 ar
     8    3   34 1
     9    3   18 ar
    10    4   22 1
    11    4   35 1
    12    4   36 1
    13    4    5 1
    14    5   37 1
    15    5   38 1
    16    5   39 1
    17    6   29 ar
    18    6   25 1
    19    6   24 ar
    20    7    8 ar
    21    7   12 ar
    22    7   40 1
    23    8    9 ar
    24    8   41 1
    25    9   10 ar
    26    9   42 1
    27   10   14 ar
    28   10   11 ar
    29   11   15 ar
    30   11   12 ar
    31   12   13 1
    32   14   21 ar
    33   15   17 ar
    34   15   16 2
    35   17   21 ar
    36   17   18 1
    37   19   43 1
    38   20   44 1
    39   21   22 1
    40   22   23 1
    41   22   45 1
    42   23   24 1
    43   23   49 1
    44   24   28 ar
    45   25   26 ar
    46   25   31 ar
    47   26   27 ar
    48   27   46 1
    49   27   28 ar
    50   28   48 1
    51   29   30 ar
    52   30   31 ar
    53   30   47 1
@<TRIPOS>SUBSTRUCTURE
     1 40L         1 GROUP   0 A     ****
@<TRIPOS>MOLECULE
2-[1-(2,9-dihydro-1~{H}-purin-2-ylium-6-ylamino)propyl]-5-fluoro-3-phenyl-quinazolin-4-one
   50    54     1     0     0
SMALL
USER_CHARGES

@<TRIPOS>ATOM
      1 C13        -3.0990  -14.1880   23.6450 C.ar      1 40L        -0.1313
      2 C15        -2.7890  -16.3660   24.6000 C.ar      1 40L        -0.1110
      3 C17        -4.5080  -16.0300   22.9510 C.ar      1 40L        -0.1313
      4 C20        -7.5970  -14.5410   23.5990 C.3       1 40L        -0.1034
      5 C21        -8.7690  -14.3380   22.6510 C.3       1 40L        -0.1033
      6 C24        -7.0420   -9.9920   25.2280 C.ar      1 40L        -0.1685
      7 C01        -4.9980  -11.2850   17.7880 C.ar      1 40L        -0.1772
      8 C02        -6.1650  -10.6730   18.2330 C.ar      1 40L        -0.0608
      9 C03        -6.6670  -10.9930   19.5000 C.ar      1 40L        -0.1328
     10 C04        -6.0110  -11.9180   20.3270 C.ar      1 40L         0.1992
     11 C05        -4.8590  -12.5380   19.8720 C.ar      1 40L        -0.2226
     12 C06        -4.3640  -12.2210   18.6040 C.ar      1 40L         0.2125
     13 F07        -3.2470  -12.8160   18.1730 F         1 40L        -0.0979
     14 N08        -6.5270  -12.2030   21.5840 N.ar      1 40L        -0.6528
     15 C09        -4.1940  -13.5210   20.7630 C.ar      1 40L         0.7189
     16 O10        -3.1750  -14.0670   20.4020 O.2       1 40L        -0.5497
     17 N11        -4.8070  -13.7570   21.9950 N.am      1 40L        -0.3194
     18 C12        -4.1550  -14.6760   22.8700 C.ar      1 40L         0.0118
     19 C14        -2.4080  -15.0300   24.5110 C.ar      1 40L        -0.1172
     20 C16        -3.8270  -16.8710   23.8240 C.ar      1 40L        -0.1172
     21 C18        -5.9620  -13.0730   22.3480 C.ar      1 40L         0.4864
     22 C19        -6.6120  -13.3560   23.7120 C.3       1 40L         0.1833
     23 N22        -7.2550  -12.1070   24.1100 N.pl3     1 40L        -0.6830
     24 C23        -6.4770  -11.1650   24.7280 C.ar      1 40L         0.4930
     25 C25        -6.2030   -9.0860   25.8370 C.ar      1 40L         0.5904
     26 N26        -4.8690   -9.1820   26.0140 N.ar      1 40L        -0.5283
     27 C27        -4.4110  -10.3460   25.5000 C.cat     1 40L         0.3037
     28 N28        -5.1190  -11.3250   24.8750 N.pl3     1 40L        -0.6266
     29 N29        -8.3410   -9.5400   25.2300 N.ar      1 40L        -0.5082
     30 C30        -8.2750   -8.3860   25.8440 C.ar      1 40L         0.5548
     31 N31        -7.0130   -8.0650   26.2290 N.pl3     1 40L        -0.6774
     32 H1         -2.8170  -13.1480   23.5710 H         1 40L         0.1456
     33 H2         -2.2700  -17.0220   25.2830 H         1 40L         0.1516
     34 H3         -5.3070  -16.4190   22.3370 H         1 40L         0.1456
     35 H4         -7.0602  -15.4309   23.2386 H         1 40L         0.0701
     36 H5         -8.0330  -14.7509   24.5869 H         1 40L         0.0701
     37 H6         -9.4001  -15.2389   22.6501 H         1 40L         0.0543
     38 H7         -8.3908  -14.1542   21.6346 H         1 40L         0.0543
     39 H8         -9.3636  -13.4741   22.9828 H         1 40L         0.0543
     40 H9         -4.5870  -11.0380   16.8200 H         1 40L         0.1697
     41 H10        -6.6790   -9.9580   17.6070 H         1 40L         0.1563
     42 H11        -7.5740  -10.5200   19.8470 H         1 40L         0.1577
     43 H12        -1.5890  -14.6530   25.1050 H         1 40L         0.1491
     44 H13        -4.1030  -17.9120   23.8990 H         1 40L         0.1491
     45 H14        -5.8934  -13.6110   24.5048 H         1 40L         0.0785
     46 H16        -3.3500  -10.5200   25.5980 H         1 40L         0.2338
     47 H18        -9.1330   -7.7560   26.0250 H         1 40L         0.1123
     48 H48        -4.6271  -12.2307   24.4907 H         1 40L         0.4856
     49 H49        -6.5885   -7.1968   26.7545 H         1 40L         0.5058
     50 H50        -8.3255  -11.9515   23.9103 H         1 40L         0.5219
@<TRIPOS>BOND
     1    1   19 ar
     2    1   32 1
     3    1   18 ar
     4    2   33 1
     5    2   19 ar
     6    2   20 ar
     7    3   20 ar
     8    3   34 1
     9    3   18 ar
    10    4   22 1
    11    4   35 1
    12    4   36 1
    13    4    5 1
    14    5   37 1
    15    5   38 1
    16    5   39 1
    17    6   29 ar
    18    6   25 ar
    19    6   24 ar
    20    7    8 ar
    21    7   12 ar
    22    7   40 1
    23    8    9 ar
    24    8   41 1
    25    9   10 ar
    26    9   42 1
    27   10   14 ar
    28   10   11 ar
    29   11   15 ar
    30   11   12 ar
    31   12   13 1
    32   14   21 ar
    33   15   17 ar
    34   15   16 2
    35   17   21 ar
    36   17   18 1
    37   19   43 1
    38   20   44 1
    39   21   22 1
    40   22   23 1
    41   22   45 1
    42   23   24 1
    43   23   50 1
    44   24   28 ar
    45   25   26 ar
    46   25   31 ar
    47   26   27 ar
    48   27   46 1
    49   27   28 ar
    50   28   48 1
    51   29   30 ar
    52   30   31 ar
    53   30   47 1
    54   31   49 1
@<TRIPOS>SUBSTRUCTURE
     1 40L         1 GROUP   0 A     ****
