@<TRIPOS>MOLECULE
5-fluoro-3-phenyl-2-[(1~{S})-1-(9~{H}-purin-6-ylamino)propyl]quinazolin-4-one
   49    53     0     0     0
SMALL
USER_CHARGES

@<TRIPOS>ATOM
      1 C1         -5.2180   -5.1996    0.6441 C.3       1 <0>        -0.0983
      2 C2         -3.9438   -5.9721    0.3330 C.3       1 <0>        -0.1054
      3 C3         -3.5422   -5.8650   -1.1344 C.3       1 <0>         0.2231
      4 H1         -4.3471   -6.3375   -1.7166 H         1 <0>         0.0994
      5 C4         -3.2684   -4.4243   -1.5152 C.2       1 <0>         0.5006
      6 N1         -2.3191   -3.8360   -0.8542 N.2       1 <0>        -0.6510
      7 C5         -2.0751   -2.4788   -1.0864 C.ar      1 <0>         0.2177
      8 C6         -2.8340   -1.7334   -1.9885 C.ar      1 <0>        -0.2308
      9 C7         -2.5800   -0.3700   -2.1802 C.ar      1 <0>         0.2050
     10 C8         -1.5594    0.2518   -1.4623 C.ar      1 <0>        -0.1999
     11 C9         -0.7952   -0.4837   -0.5597 C.ar      1 <0>        -0.0692
     12 C10        -1.0530   -1.8424   -0.3725 C.ar      1 <0>        -0.1391
     13 F1         -3.3006    0.3611   -3.0422 F         1 <0>        -0.1120
     14 C11        -3.8939   -2.4176   -2.7585 C.2       1 <0>         0.7152
     15 O1         -4.5129   -1.7696   -3.5995 O.2       1 <0>        -0.5834
     16 N2         -4.0507   -3.7930   -2.4853 N.am      1 <0>        -0.3187
     17 C12        -5.0119   -4.5105   -3.2769 C.ar      1 <0>         0.0277
     18 C13        -6.3595   -4.1535   -3.2293 C.ar      1 <0>        -0.1178
     19 C14        -7.2927   -4.8487   -3.9984 C.ar      1 <0>        -0.1229
     20 C15        -6.8784   -5.9009   -4.8150 C.ar      1 <0>        -0.1207
     21 C16        -5.5308   -6.2580   -4.8625 C.ar      1 <0>        -0.1229
     22 C17        -4.5976   -5.5628   -4.0934 C.ar      1 <0>        -0.1178
     23 N3         -2.3142   -6.5528   -1.4252 N.pl3     1 <0>        -0.8580
     24 C18        -2.2705   -7.8323   -1.7974 C.ar      1 <0>         0.7758
     25 C19        -1.1114   -8.4938   -2.0754 C.ar      1 <0>        -0.2333
     26 C20        -1.1078   -9.9051   -2.4826 C.ar      1 <0>         0.5828
     27 N4          0.1130  -10.2980   -2.6883 N.pl3     1 <0>        -0.7752
     28 C21         0.8509   -9.1522   -2.4133 C.2       1 <0>         0.5103
     29 N5          0.1922   -8.0840   -2.0554 N.2       1 <0>        -0.5369
     30 N6         -2.2642  -10.6271   -2.6042 N.ar      1 <0>        -0.7337
     31 C22        -3.3450   -9.9593   -2.3304 C.ar      1 <0>         0.6889
     32 N7         -3.4156   -8.6416   -1.9447 N.ar      1 <0>        -0.8021
     33 H2         -5.4621   -5.3095    1.7110 H         1 <0>         0.0400
     34 H3         -6.0447   -5.5958    0.0361 H         1 <0>         0.0400
     35 H4         -5.0679   -4.1353    0.4100 H         1 <0>         0.0400
     36 H5         -3.1171   -5.5759    0.9410 H         1 <0>         0.0671
     37 H6         -4.0938   -7.0364    0.5671 H         1 <0>         0.0671
     38 H7         -1.3617    1.3100   -1.6059 H         1 <0>         0.1550
     39 H8          0.0023   -0.0008   -0.0026 H         1 <0>         0.1439
     40 H9         -0.4468   -2.4048    0.3338 H         1 <0>         0.1616
     41 H10        -6.6935   -3.3344   -2.5974 H         1 <0>         0.1463
     42 H11        -8.3420   -4.5709   -3.9621 H         1 <0>         0.1402
     43 H12        -7.6051   -6.4425   -5.4134 H         1 <0>         0.1384
     44 H13        -5.2087   -7.0771   -5.4987 H         1 <0>         0.1402
     45 H14        -3.5499   -5.8495   -4.1396 H         1 <0>         0.1463
     46 H15        -1.3541   -6.0220   -1.3445 H         1 <0>         0.4776
     47 H16         1.9481   -9.1667   -2.5001 H         1 <0>         0.0743
     48 H17        -4.3338  -10.4397   -2.3949 H         1 <0>         0.0514
     49 H18         0.3121  -11.3333   -3.0022 H         1 <0>         0.4733
@<TRIPOS>BOND
     1    1    2 1
     2    1   33 1
     3    1   34 1
     4    1   35 1
     5    2    3 1
     6    2   36 1
     7    2   37 1
     8    3    4 1
     9    3    5 1
    10    3   23 1
    11    5   16 1
    12    5    6 2
    13    6    7 1
    14    7   12 ar
    15    7    8 ar
    16    8    9 ar
    17    8   14 1
    18    9   10 ar
    19    9   13 1
    20   10   11 ar
    21   10   38 1
    22   11   12 ar
    23   11   39 1
    24   12   40 1
    25   14   15 2
    26   14   16 am
    27   16   17 1
    28   17   22 ar
    29   17   18 ar
    30   18   19 ar
    31   18   41 1
    32   19   20 ar
    33   19   42 1
    34   20   21 ar
    35   20   43 1
    36   21   22 ar
    37   21   44 1
    38   22   45 1
    39   23   24 1
    40   23   46 1
    41   24   32 ar
    42   24   25 ar
    43   25   29 1
    44   25   26 ar
    45   26   27 1
    46   26   30 ar
    47   27   28 1
    48   27   49 1
    49   28   29 2
    50   28   47 1
    51   30   31 ar
    52   31   32 ar
    53   31   48 1
@<TRIPOS>MOLECULE
5-fluoro-3-phenyl-2-[(1~{S})-1-(7~{H}-purin-6-ylamino)propyl]quinazolin-4-one
   49    53     0     0     0
SMALL
USER_CHARGES

@<TRIPOS>ATOM
      1 C1         -5.2180   -5.1996    0.6441 C.3       1 <0>        -0.0966
      2 C2         -3.9438   -5.9721    0.3330 C.3       1 <0>        -0.1089
      3 C3         -3.5422   -5.8650   -1.1344 C.3       1 <0>         0.2280
      4 H1         -4.3471   -6.3375   -1.7166 H         1 <0>         0.1035
      5 C4         -3.2684   -4.4243   -1.5152 C.2       1 <0>         0.5076
      6 N1         -2.3191   -3.8360   -0.8542 N.2       1 <0>        -0.6677
      7 C5         -2.0751   -2.4788   -1.0864 C.ar      1 <0>         0.2200
      8 C6         -2.8340   -1.7334   -1.9885 C.ar      1 <0>        -0.2334
      9 C7         -2.5800   -0.3700   -2.1802 C.ar      1 <0>         0.2093
     10 C8         -1.5594    0.2518   -1.4623 C.ar      1 <0>        -0.1991
     11 C9         -0.7952   -0.4837   -0.5597 C.ar      1 <0>        -0.0654
     12 C10        -1.0530   -1.8424   -0.3725 C.ar      1 <0>        -0.1478
     13 F1         -3.3006    0.3611   -3.0422 F         1 <0>        -0.1093
     14 C11        -3.8939   -2.4176   -2.7585 C.2       1 <0>         0.7151
     15 O1         -4.5129   -1.7696   -3.5995 O.2       1 <0>        -0.5776
     16 N2         -4.0507   -3.7930   -2.4853 N.am      1 <0>        -0.3167
     17 C12        -5.0119   -4.5105   -3.2769 C.ar      1 <0>         0.0230
     18 C13        -6.3595   -4.1535   -3.2293 C.ar      1 <0>        -0.1175
     19 C14        -7.2927   -4.8487   -3.9984 C.ar      1 <0>        -0.1219
     20 C15        -6.8784   -5.9009   -4.8150 C.ar      1 <0>        -0.1191
     21 C16        -5.5308   -6.2580   -4.8625 C.ar      1 <0>        -0.1219
     22 C17        -4.5976   -5.5628   -4.0934 C.ar      1 <0>        -0.1175
     23 N3         -2.3142   -6.5528   -1.4252 N.pl3     1 <0>        -0.8828
     24 C18        -2.2705   -7.8323   -1.7974 C.ar      1 <0>         0.7403
     25 C19        -1.1114   -8.4938   -2.0754 C.ar      1 <0>        -0.2595
     26 C20        -1.1078   -9.9051   -2.4826 C.ar      1 <0>         0.5792
     27 N4          0.1130  -10.2980   -2.6883 N.2       1 <0>        -0.6278
     28 C21         0.8509   -9.1522   -2.4133 C.2       1 <0>         0.5454
     29 N5          0.1922   -8.0840   -2.0554 N.pl3     1 <0>        -0.6564
     30 N6         -2.2642  -10.6271   -2.6042 N.ar      1 <0>        -0.6660
     31 C22        -3.3450   -9.9593   -2.3304 C.ar      1 <0>         0.6546
     32 N7         -3.4156   -8.6416   -1.9447 N.ar      1 <0>        -0.7742
     33 H2         -5.4621   -5.3095    1.7110 H         1 <0>         0.0382
     34 H3         -6.0447   -5.5958    0.0361 H         1 <0>         0.0382
     35 H4         -5.0679   -4.1353    0.4100 H         1 <0>         0.0382
     36 H5         -3.1171   -5.5759    0.9410 H         1 <0>         0.0700
     37 H6         -4.0938   -7.0364    0.5671 H         1 <0>         0.0700
     38 H7         -1.3617    1.3100   -1.6059 H         1 <0>         0.1568
     39 H8          0.0023   -0.0008   -0.0026 H         1 <0>         0.1443
     40 H9         -0.4468   -2.4048    0.3338 H         1 <0>         0.1513
     41 H10        -6.6935   -3.3344   -2.5974 H         1 <0>         0.1468
     42 H11        -8.3420   -4.5709   -3.9621 H         1 <0>         0.1418
     43 H12        -7.6051   -6.4425   -5.4134 H         1 <0>         0.1393
     44 H13        -5.2087   -7.0771   -5.4987 H         1 <0>         0.1418
     45 H14        -3.5499   -5.8495   -4.1396 H         1 <0>         0.1468
     46 H15        -1.3541   -6.0220   -1.3445 H         1 <0>         0.4455
     47 H16         1.9481   -9.1667   -2.5001 H         1 <0>         0.0742
     48 H17        -4.3338  -10.4397   -2.3949 H         1 <0>         0.0534
     49 H18         0.4392   -7.0493   -1.7754 H         1 <0>         0.4648
@<TRIPOS>BOND
     1    1    2 1
     2    1   33 1
     3    1   34 1
     4    1   35 1
     5    2    3 1
     6    2   36 1
     7    2   37 1
     8    3    4 1
     9    3    5 1
    10    3   23 1
    11    5   16 1
    12    5    6 2
    13    6    7 1
    14    7   12 ar
    15    7    8 ar
    16    8    9 ar
    17    8   14 1
    18    9   10 ar
    19    9   13 1
    20   10   11 ar
    21   10   38 1
    22   11   12 ar
    23   11   39 1
    24   12   40 1
    25   14   15 2
    26   14   16 am
    27   16   17 1
    28   17   22 ar
    29   17   18 ar
    30   18   19 ar
    31   18   41 1
    32   19   20 ar
    33   19   42 1
    34   20   21 ar
    35   20   43 1
    36   21   22 ar
    37   21   44 1
    38   22   45 1
    39   23   24 1
    40   23   46 1
    41   24   32 ar
    42   24   25 ar
    43   25   29 1
    44   25   26 ar
    45   26   27 1
    46   26   30 ar
    47   27   28 2
    48   28   29 1
    49   28   47 1
    50   29   49 1
    51   30   31 ar
    52   31   32 ar
    53   31   48 1
@<TRIPOS>MOLECULE
(~{Z})-[(1~{S})-1-(5-fluoro-4-oxo-3-phenyl-quinazolin-2-yl)propyl]-(3~{H}-purin-7-id-6-ylidene)ammonium
   49    53     0     0     0
SMALL
USER_CHARGES

@<TRIPOS>ATOM
      1 C1         -5.2180   -5.1996    0.6441 C.3       1 <0>        -0.1016
      2 C2         -3.9438   -5.9721    0.3330 C.3       1 <0>        -0.1025
      3 C3         -3.5422   -5.8650   -1.1344 C.3       1 <0>         0.0361
      4 H1         -4.3471   -6.3375   -1.7166 H         1 <0>         0.0994
      5 C4         -3.2684   -4.4243   -1.5152 C.2       1 <0>         0.5004
      6 N1         -2.3191   -3.8360   -0.8542 N.2       1 <0>        -0.6436
      7 C5         -2.0751   -2.4788   -1.0864 C.ar      1 <0>         0.2157
      8 C6         -2.8340   -1.7334   -1.9885 C.ar      1 <0>        -0.2308
      9 C7         -2.5800   -0.3700   -2.1802 C.ar      1 <0>         0.2032
     10 C8         -1.5594    0.2518   -1.4623 C.ar      1 <0>        -0.1963
     11 C9         -0.7952   -0.4837   -0.5597 C.ar      1 <0>        -0.0690
     12 C10        -1.0530   -1.8424   -0.3725 C.ar      1 <0>        -0.1359
     13 F1         -3.3006    0.3611   -3.0422 F         1 <0>        -0.1114
     14 C11        -3.8939   -2.4176   -2.7585 C.2       1 <0>         0.7154
     15 O1         -4.5129   -1.7696   -3.5995 O.2       1 <0>        -0.5820
     16 N2         -4.0507   -3.7930   -2.4853 N.am      1 <0>        -0.3215
     17 C12        -5.0119   -4.5105   -3.2769 C.ar      1 <0>         0.0271
     18 C13        -6.3595   -4.1535   -3.2293 C.ar      1 <0>        -0.1183
     19 C14        -7.2927   -4.8487   -3.9984 C.ar      1 <0>        -0.1231
     20 C15        -6.8784   -5.9009   -4.8150 C.ar      1 <0>        -0.1208
     21 C16        -5.5308   -6.2580   -4.8625 C.ar      1 <0>        -0.1231
     22 C17        -4.5976   -5.5628   -4.0934 C.ar      1 <0>        -0.1183
     23 N3         -2.3142   -6.5528   -1.4252 N.pl3     1 <0>        -0.3636
     24 C18        -2.2705   -7.8323   -1.7974 C.cat     1 <0>         0.5048
     25 C19        -1.1114   -8.4938   -2.0754 C.2       1 <0>         0.0477
     26 C20        -1.1078   -9.9051   -2.4826 C.2       1 <0>         0.4471
     27 N4          0.1130  -10.2980   -2.6883 N.2       1 <0>        -0.7261
     28 C21         0.8509   -9.1522   -2.4133 C.2       1 <0>         0.5582
     29 N5          0.1922   -8.0840   -2.0554 N.2       1 <0>        -0.6801
     30 N6         -2.2642  -10.6271   -2.6042 N.pl3     1 <0>        -0.7361
     31 C22        -3.3450   -9.9593   -2.3304 C.2       1 <0>         0.6537
     32 N7         -3.4156   -8.6416   -1.9447 N.2       1 <0>        -0.7603
     33 H2         -5.4621   -5.3095    1.7110 H         1 <0>         0.0426
     34 H3         -6.0447   -5.5958    0.0361 H         1 <0>         0.0426
     35 H4         -5.0679   -4.1353    0.4100 H         1 <0>         0.0426
     36 H5         -3.1171   -5.5759    0.9410 H         1 <0>         0.0664
     37 H6         -4.0938   -7.0364    0.5671 H         1 <0>         0.0664
     38 H7         -1.3617    1.3100   -1.6059 H         1 <0>         0.1558
     39 H8          0.0023   -0.0008   -0.0026 H         1 <0>         0.1455
     40 H9         -0.4468   -2.4048    0.3338 H         1 <0>         0.1640
     41 H10        -6.6935   -3.3344   -2.5974 H         1 <0>         0.1468
     42 H11        -8.3420   -4.5709   -3.9621 H         1 <0>         0.1400
     43 H12        -7.6051   -6.4425   -5.4134 H         1 <0>         0.1384
     44 H13        -5.2087   -7.0771   -5.4987 H         1 <0>         0.1400
     45 H14        -3.5499   -5.8495   -4.1396 H         1 <0>         0.1468
     46 H15         1.9481   -9.1667   -2.5001 H         1 <0>         0.0536
     47 H16        -4.3338  -10.4397   -2.3949 H         1 <0>         0.0611
     48 H17        -2.2239  -11.6825   -2.9118 H         1 <0>         0.4707
     49 H18        -1.3826   -5.9759   -1.3290 H         1 <0>         0.3323
@<TRIPOS>BOND
     1    1    2 1
     2    1   33 1
     3    1   34 1
     4    1   35 1
     5    2    3 1
     6    2   36 1
     7    2   37 1
     8    3    4 1
     9    3    5 1
    10    3   23 1
    11    5   16 1
    12    5    6 2
    13    6    7 1
    14    7   12 ar
    15    7    8 ar
    16    8    9 ar
    17    8   14 1
    18    9   10 ar
    19    9   13 1
    20   10   11 ar
    21   10   38 1
    22   11   12 ar
    23   11   39 1
    24   12   40 1
    25   14   15 2
    26   14   16 am
    27   16   17 1
    28   17   22 ar
    29   17   18 ar
    30   18   19 ar
    31   18   41 1
    32   19   20 ar
    33   19   42 1
    34   20   21 ar
    35   20   43 1
    36   21   22 ar
    37   21   44 1
    38   22   45 1
    39   23   24 2
    40   23   49 1
    41   24   32 1
    42   24   25 1
    43   25   29 1
    44   25   26 2
    45   26   27 1
    46   26   30 1
    47   27   28 2
    48   28   29 1
    49   28   46 1
    50   30   31 1
    51   30   48 1
    52   31   32 2
    53   31   47 1
@<TRIPOS>MOLECULE
5-fluoro-3-phenyl-2-[(1~{S})-1-(purin-9-id-6-ylamino)propyl]quinazolin-4-one
   48    52     0     0     0
SMALL
USER_CHARGES

@<TRIPOS>ATOM
      1 C1         -5.2180   -5.1996    0.6441 C.3       1 <0>        -0.0941
      2 C2         -3.9438   -5.9721    0.3330 C.3       1 <0>        -0.1149
      3 C3         -3.5422   -5.8650   -1.1344 C.3       1 <0>         0.2429
      4 H1         -4.3471   -6.3375   -1.7166 H         1 <0>         0.0908
      5 C4         -3.2684   -4.4243   -1.5152 C.2       1 <0>         0.5072
      6 N1         -2.3191   -3.8360   -0.8542 N.2       1 <0>        -0.6267
      7 C5         -2.0751   -2.4788   -1.0864 C.ar      1 <0>         0.2288
      8 C6         -2.8340   -1.7334   -1.9885 C.ar      1 <0>        -0.2418
      9 C7         -2.5800   -0.3700   -2.1802 C.ar      1 <0>         0.1969
     10 C8         -1.5594    0.2518   -1.4623 C.ar      1 <0>        -0.2136
     11 C9         -0.7952   -0.4837   -0.5597 C.ar      1 <0>        -0.0773
     12 C10        -1.0530   -1.8424   -0.3725 C.ar      1 <0>        -0.1359
     13 F1         -3.3006    0.3611   -3.0422 F         1 <0>        -0.1236
     14 C11        -3.8939   -2.4176   -2.7585 C.2       1 <0>         0.7148
     15 O1         -4.5129   -1.7696   -3.5995 O.2       1 <0>        -0.6108
     16 N2         -4.0507   -3.7930   -2.4853 N.am      1 <0>        -0.3221
     17 C12        -5.0119   -4.5105   -3.2769 C.ar      1 <0>         0.0425
     18 C13        -6.3595   -4.1535   -3.2293 C.ar      1 <0>        -0.1144
     19 C14        -7.2927   -4.8487   -3.9984 C.ar      1 <0>        -0.1265
     20 C15        -6.8784   -5.9009   -4.8150 C.ar      1 <0>        -0.1299
     21 C16        -5.5308   -6.2580   -4.8625 C.ar      1 <0>        -0.1265
     22 C17        -4.5976   -5.5628   -4.0934 C.ar      1 <0>        -0.1144
     23 N3         -2.3142   -6.5528   -1.4252 N.pl3     1 <0>        -0.8978
     24 C18        -2.2705   -7.8323   -1.7974 C.ar      1 <0>         0.7133
     25 C19        -1.1114   -8.4938   -2.0754 C.ar      1 <0>        -0.2314
     26 C20        -1.1078   -9.9051   -2.4826 C.ar      1 <0>         0.4689
     27 N4          0.1130  -10.2980   -2.6883 N.2       1 <0>        -0.5698
     28 C21         0.8509   -9.1522   -2.4133 C.2       1 <0>         0.4123
     29 N5          0.1922   -8.0840   -2.0554 N.2       1 <0>        -0.6551
     30 N6         -2.2642  -10.6271   -2.6042 N.ar      1 <0>        -0.6961
     31 C22        -3.3450   -9.9593   -2.3304 C.ar      1 <0>         0.5968
     32 N7         -3.4156   -8.6416   -1.9447 N.ar      1 <0>        -0.8364
     33 H2         -5.4621   -5.3095    1.7110 H         1 <0>         0.0340
     34 H3         -6.0447   -5.5958    0.0361 H         1 <0>         0.0340
     35 H4         -5.0679   -4.1353    0.4100 H         1 <0>         0.0340
     36 H5         -3.1171   -5.5759    0.9410 H         1 <0>         0.0594
     37 H6         -4.0938   -7.0364    0.5671 H         1 <0>         0.0594
     38 H7         -1.3617    1.3100   -1.6059 H         1 <0>         0.1434
     39 H8          0.0023   -0.0008   -0.0026 H         1 <0>         0.1363
     40 H9         -0.4468   -2.4048    0.3338 H         1 <0>         0.1715
     41 H10        -6.6935   -3.3344   -2.5974 H         1 <0>         0.1487
     42 H11        -8.3420   -4.5709   -3.9621 H         1 <0>         0.1330
     43 H12        -7.6051   -6.4425   -5.4134 H         1 <0>         0.1291
     44 H13        -5.2087   -7.0771   -5.4987 H         1 <0>         0.1330
     45 H14        -3.5499   -5.8495   -4.1396 H         1 <0>         0.1487
     46 H15        -1.3541   -6.0220   -1.3445 H         1 <0>         0.4579
     47 H16         1.9481   -9.1667   -2.5001 H         1 <0>         0.0168
     48 H17        -4.3338  -10.4397   -2.3949 H         1 <0>         0.0050
@<TRIPOS>BOND
     1    1    2 1
     2    1   33 1
     3    1   34 1
     4    1   35 1
     5    2    3 1
     6    2   36 1
     7    2   37 1
     8    3    4 1
     9    3    5 1
    10    3   23 1
    11    5   16 1
    12    5    6 2
    13    6    7 1
    14    7   12 ar
    15    7    8 ar
    16    8    9 ar
    17    8   14 1
    18    9   10 ar
    19    9   13 1
    20   10   11 ar
    21   10   38 1
    22   11   12 ar
    23   11   39 1
    24   12   40 1
    25   14   15 2
    26   14   16 am
    27   16   17 1
    28   17   22 ar
    29   17   18 ar
    30   18   19 ar
    31   18   41 1
    32   19   20 ar
    33   19   42 1
    34   20   21 ar
    35   20   43 1
    36   21   22 ar
    37   21   44 1
    38   22   45 1
    39   23   24 1
    40   23   46 1
    41   24   32 ar
    42   24   25 ar
    43   25   29 1
    44   25   26 ar
    45   26   27 1
    46   26   30 ar
    47   27   28 1
    48   28   29 2
    49   28   47 1
    50   30   31 ar
    51   31   32 ar
    52   31   48 1
@<TRIPOS>MOLECULE
5-fluoro-3-phenyl-2-[(1~{S})-1-(1~{H}-purin-6-ylamino)propyl]quinazolin-4-one
   49    53     0     0     0
SMALL
USER_CHARGES

@<TRIPOS>ATOM
      1 C1         -5.2180   -5.1996    0.6441 C.3       1 <0>        -0.1002
      2 C2         -3.9438   -5.9721    0.3330 C.3       1 <0>        -0.1058
      3 C3         -3.5422   -5.8650   -1.1344 C.3       1 <0>         0.2139
      4 H1         -4.3471   -6.3375   -1.7166 H         1 <0>         0.0676
      5 C4         -3.2684   -4.4243   -1.5152 C.2       1 <0>         0.4938
      6 N1         -2.3191   -3.8360   -0.8542 N.2       1 <0>        -0.6356
      7 C5         -2.0751   -2.4788   -1.0864 C.ar      1 <0>         0.2108
      8 C6         -2.8340   -1.7334   -1.9885 C.ar      1 <0>        -0.2275
      9 C7         -2.5800   -0.3700   -2.1802 C.ar      1 <0>         0.2034
     10 C8         -1.5594    0.2518   -1.4623 C.ar      1 <0>        -0.1924
     11 C9         -0.7952   -0.4837   -0.5597 C.ar      1 <0>        -0.0680
     12 C10        -1.0530   -1.8424   -0.3725 C.ar      1 <0>        -0.1316
     13 F1         -3.3006    0.3611   -3.0422 F         1 <0>        -0.1105
     14 C11        -3.8939   -2.4176   -2.7585 C.2       1 <0>         0.7173
     15 O1         -4.5129   -1.7696   -3.5995 O.2       1 <0>        -0.5771
     16 N2         -4.0507   -3.7930   -2.4853 N.am      1 <0>        -0.3237
     17 C12        -5.0119   -4.5105   -3.2769 C.ar      1 <0>         0.0283
     18 C13        -6.3595   -4.1535   -3.2293 C.ar      1 <0>        -0.1232
     19 C14        -7.2927   -4.8487   -3.9984 C.ar      1 <0>        -0.1230
     20 C15        -6.8784   -5.9009   -4.8150 C.ar      1 <0>        -0.1199
     21 C16        -5.5308   -6.2580   -4.8625 C.ar      1 <0>        -0.1230
     22 C17        -4.5976   -5.5628   -4.0934 C.ar      1 <0>        -0.1232
     23 N3         -2.3142   -6.5528   -1.4252 N.pl3     1 <0>        -0.7651
     24 C18        -2.2705   -7.8323   -1.7974 C.2       1 <0>         0.4550
     25 C19        -1.1114   -8.4938   -2.0754 C.2       1 <0>        -0.2082
     26 C20        -1.1078   -9.9051   -2.4826 C.2       1 <0>         0.5756
     27 N4          0.1130  -10.2980   -2.6883 N.2       1 <0>        -0.6495
     28 C21         0.8509   -9.1522   -2.4133 C.2       1 <0>         0.5273
     29 N5          0.1922   -8.0840   -2.0554 N.2       1 <0>        -0.5847
     30 N6         -2.2642  -10.6271   -2.6042 N.2       1 <0>        -0.5899
     31 C22        -3.3450   -9.9593   -2.3304 C.2       1 <0>         0.5754
     32 N7         -3.4156   -8.6416   -1.9447 N.pl3     1 <0>        -0.7100
     33 H2         -5.4621   -5.3095    1.7110 H         1 <0>         0.0467
     34 H3         -6.0447   -5.5958    0.0361 H         1 <0>         0.0467
     35 H4         -5.0679   -4.1353    0.4100 H         1 <0>         0.0467
     36 H5         -3.1171   -5.5759    0.9410 H         1 <0>         0.0608
     37 H6         -4.0938   -7.0364    0.5671 H         1 <0>         0.0608
     38 H7         -1.3617    1.3100   -1.6059 H         1 <0>         0.1577
     39 H8          0.0023   -0.0008   -0.0026 H         1 <0>         0.1485
     40 H9         -0.4468   -2.4048    0.3338 H         1 <0>         0.1673
     41 H10        -6.6935   -3.3344   -2.5974 H         1 <0>         0.1460
     42 H11        -8.3420   -4.5709   -3.9621 H         1 <0>         0.1418
     43 H12        -7.6051   -6.4425   -5.4134 H         1 <0>         0.1413
     44 H13        -5.2087   -7.0771   -5.4987 H         1 <0>         0.1418
     45 H14        -3.5499   -5.8495   -4.1396 H         1 <0>         0.1460
     46 H15         1.9481   -9.1667   -2.5001 H         1 <0>         0.0604
     47 H16        -4.3338  -10.4397   -2.3949 H         1 <0>         0.0602
     48 H17        -4.4138   -8.2231   -1.7486 H         1 <0>         0.4517
     49 H18        -1.3541   -6.0220   -1.3445 H         1 <0>         0.4993
@<TRIPOS>BOND
     1    1    2 1
     2    1   33 1
     3    1   34 1
     4    1   35 1
     5    2    3 1
     6    2   36 1
     7    2   37 1
     8    3    4 1
     9    3    5 1
    10    3   23 1
    11    5   16 1
    12    5    6 2
    13    6    7 1
    14    7   12 ar
    15    7    8 ar
    16    8    9 ar
    17    8   14 1
    18    9   10 ar
    19    9   13 1
    20   10   11 ar
    21   10   38 1
    22   11   12 ar
    23   11   39 1
    24   12   40 1
    25   14   15 2
    26   14   16 am
    27   16   17 1
    28   17   22 ar
    29   17   18 ar
    30   18   19 ar
    31   18   41 1
    32   19   20 ar
    33   19   42 1
    34   20   21 ar
    35   20   43 1
    36   21   22 ar
    37   21   44 1
    38   22   45 1
    39   23   24 1
    40   23   49 1
    41   24   32 1
    42   24   25 2
    43   25   29 1
    44   25   26 1
    45   26   27 2
    46   26   30 1
    47   27   28 1
    48   28   29 2
    49   28   46 1
    50   30   31 2
    51   31   32 1
    52   31   47 1
    53   32   48 1
@<TRIPOS>MOLECULE
5-fluoro-3-phenyl-2-[(1~{S})-1-(9~{H}-purin-1-ium-6-ylamino)propyl]quinazolin-4-one
   50    54     0     0     0
SMALL
USER_CHARGES

@<TRIPOS>ATOM
      1 C1         -5.2180   -5.1996    0.6441 C.3       1 <0>        -0.1071
      2 C2         -3.9438   -5.9721    0.3330 C.3       1 <0>        -0.1044
      3 C3         -3.5422   -5.8650   -1.1344 C.3       1 <0>         0.1827
      4 H1         -4.3471   -6.3375   -1.7166 H         1 <0>         0.0809
      5 C4         -3.2684   -4.4243   -1.5152 C.2       1 <0>         0.4876
      6 N1         -2.3191   -3.8360   -0.8542 N.2       1 <0>        -0.6566
      7 C5         -2.0751   -2.4788   -1.0864 C.ar      1 <0>         0.2007
      8 C6         -2.8340   -1.7334   -1.9885 C.ar      1 <0>        -0.2226
      9 C7         -2.5800   -0.3700   -2.1802 C.ar      1 <0>         0.2124
     10 C8         -1.5594    0.2518   -1.4623 C.ar      1 <0>        -0.1773
     11 C9         -0.7952   -0.4837   -0.5597 C.ar      1 <0>        -0.0606
     12 C10        -1.0530   -1.8424   -0.3725 C.ar      1 <0>        -0.1340
     13 F1         -3.3006    0.3611   -3.0422 F         1 <0>        -0.0976
     14 C11        -3.8939   -2.4176   -2.7585 C.2       1 <0>         0.7180
     15 O1         -4.5129   -1.7696   -3.5995 O.2       1 <0>        -0.5489
     16 N2         -4.0507   -3.7930   -2.4853 N.am      1 <0>        -0.3201
     17 C12        -5.0119   -4.5105   -3.2769 C.ar      1 <0>         0.0096
     18 C13        -6.3595   -4.1535   -3.2293 C.ar      1 <0>        -0.1278
     19 C14        -7.2927   -4.8487   -3.9984 C.ar      1 <0>        -0.1194
     20 C15        -6.8784   -5.9009   -4.8150 C.ar      1 <0>        -0.1106
     21 C16        -5.5308   -6.2580   -4.8625 C.ar      1 <0>        -0.1194
     22 C17        -4.5976   -5.5628   -4.0934 C.ar      1 <0>        -0.1278
     23 N3         -2.3142   -6.5528   -1.4252 N.pl3     1 <0>        -0.6801
     24 C18        -2.2705   -7.8323   -1.7974 C.ar      1 <0>         0.3873
     25 C19        -1.1114   -8.4938   -2.0754 C.ar      1 <0>        -0.1456
     26 C20        -1.1078   -9.9051   -2.4826 C.ar      1 <0>         0.5848
     27 N4          0.1130  -10.2980   -2.6883 N.pl3     1 <0>        -0.7192
     28 C21         0.8509   -9.1522   -2.4133 C.2       1 <0>         0.5580
     29 N5          0.1922   -8.0840   -2.0554 N.2       1 <0>        -0.5099
     30 N6         -2.2642  -10.6271   -2.6042 N.ar      1 <0>        -0.6275
     31 C22        -3.3450   -9.9593   -2.3304 C.ar      1 <0>         0.5697
     32 N7         -3.4156   -8.6416   -1.9447 N.ar      1 <0>        -0.3738
     33 H2         -5.4621   -5.3095    1.7110 H         1 <0>         0.0543
     34 H3         -6.0447   -5.5958    0.0361 H         1 <0>         0.0543
     35 H4         -5.0679   -4.1353    0.4100 H         1 <0>         0.0543
     36 H5         -3.1171   -5.5759    0.9410 H         1 <0>         0.0722
     37 H6         -4.0938   -7.0364    0.5671 H         1 <0>         0.0722
     38 H7         -1.3617    1.3100   -1.6059 H         1 <0>         0.1694
     39 H8          0.0023   -0.0008   -0.0026 H         1 <0>         0.1566
     40 H9         -0.4468   -2.4048    0.3338 H         1 <0>         0.1571
     41 H10        -6.6935   -3.3344   -2.5974 H         1 <0>         0.1450
     42 H11        -8.3420   -4.5709   -3.9621 H         1 <0>         0.1494
     43 H12        -7.6051   -6.4425   -5.4134 H         1 <0>         0.1511
     44 H13        -5.2087   -7.0771   -5.4987 H         1 <0>         0.1494
     45 H14        -3.5499   -5.8495   -4.1396 H         1 <0>         0.1450
     46 H15        -1.3541   -6.0220   -1.3445 H         1 <0>         0.5220
     47 H16         1.9481   -9.1667   -2.5001 H         1 <0>         0.1126
     48 H17        -4.3338  -10.4397   -2.3949 H         1 <0>         0.0971
     49 H18        -4.4138   -8.2231   -1.7486 H         1 <0>         0.3310
     50 H19         0.3121  -11.3333   -3.0022 H         1 <0>         0.5053
@<TRIPOS>BOND
     1    1    2 1
     2    1   33 1
     3    1   34 1
     4    1   35 1
     5    2    3 1
     6    2   36 1
     7    2   37 1
     8    3    4 1
     9    3    5 1
    10    3   23 1
    11    5   16 1
    12    5    6 2
    13    6    7 1
    14    7   12 ar
    15    7    8 ar
    16    8    9 ar
    17    8   14 1
    18    9   10 ar
    19    9   13 1
    20   10   11 ar
    21   10   38 1
    22   11   12 ar
    23   11   39 1
    24   12   40 1
    25   14   15 2
    26   14   16 am
    27   16   17 1
    28   17   22 ar
    29   17   18 ar
    30   18   19 ar
    31   18   41 1
    32   19   20 ar
    33   19   42 1
    34   20   21 ar
    35   20   43 1
    36   21   22 ar
    37   21   44 1
    38   22   45 1
    39   23   24 1
    40   23   46 1
    41   24   32 ar
    42   24   25 ar
    43   25   29 1
    44   25   26 ar
    45   26   27 1
    46   26   30 ar
    47   27   28 1
    48   27   50 1
    49   28   29 2
    50   28   47 1
    51   30   31 ar
    52   31   32 ar
    53   31   48 1
    54   32   49 1
