@<TRIPOS>MOLECULE
40L
   49    53     1     0     0
SMALL
NO_CHARGES

@<TRIPOS>ATOM
      1  C13       -3.0990  -14.1880   23.6450 C.ar      1 40L         0.0000
      2  C15       -2.7890  -16.3660   24.6000 C.ar      1 40L         0.0000
      3  C17       -4.5080  -16.0300   22.9510 C.ar      1 40L         0.0000
      4  C20       -7.5970  -14.5410   23.5990 C.3       1 40L         0.0000
      5  C21       -8.7690  -14.3380   22.6510 C.3       1 40L         0.0000
      6  C24       -7.0420   -9.9920   25.2280 C.ar      1 40L         0.0000
      7  C01       -4.9980  -11.2850   17.7880 C.ar      1 40L         0.0000
      8  C02       -6.1650  -10.6730   18.2330 C.ar      1 40L         0.0000
      9  C03       -6.6670  -10.9930   19.5000 C.ar      1 40L         0.0000
     10  C04       -6.0110  -11.9180   20.3270 C.ar      1 40L         0.0000
     11  C05       -4.8590  -12.5380   19.8720 C.ar      1 40L         0.0000
     12  C06       -4.3640  -12.2210   18.6040 C.ar      1 40L         0.0000
     13  F07       -3.2470  -12.8160   18.1730 F         1 40L         0.0000
     14  N08       -6.5270  -12.2030   21.5840 N.ar      1 40L         0.0000
     15  C09       -4.1940  -13.5210   20.7630 C.ar      1 40L         0.0000
     16  O10       -3.1750  -14.0670   20.4020 O.2       1 40L         0.0000
     17  N11       -4.8070  -13.7570   21.9950 N.am      1 40L         0.0000
     18  C12       -4.1550  -14.6760   22.8700 C.ar      1 40L         0.0000
     19  C14       -2.4080  -15.0300   24.5110 C.ar      1 40L         0.0000
     20  C16       -3.8270  -16.8710   23.8240 C.ar      1 40L         0.0000
     21  C18       -5.9620  -13.0730   22.3480 C.ar      1 40L         0.0000
     22  C19       -6.6120  -13.3560   23.7120 C.3       1 40L         0.0000
     23  N22       -7.2550  -12.1070   24.1100 N.pl3     1 40L         0.0000
     24  C23       -6.4770  -11.1650   24.7280 C.ar      1 40L         0.0000
     25  C25       -6.2030   -9.0860   25.8370 C.ar      1 40L         0.0000
     26  N26       -4.8690   -9.1820   26.0140 N.ar      1 40L         0.0000
     27  C27       -4.4110  -10.3460   25.5000 C.ar      1 40L         0.0000
     28  N28       -5.1190  -11.3250   24.8750 N.ar      1 40L         0.0000
     29  N29       -8.3410   -9.5400   25.2300 N.pl3     1 40L         0.0000
     30  C30       -8.2750   -8.3860   25.8440 C.ar      1 40L         0.0000
     31  N31       -7.0130   -8.0650   26.2290 N.ar      1 40L         0.0000
     32  H1        -2.8170  -13.1480   23.5710 H         1 40L         0.0000
     33  H2        -2.2700  -17.0220   25.2830 H         1 40L         0.0000
     34  H3        -5.3070  -16.4190   22.3370 H         1 40L         0.0000
     35  H4        -8.0040  -14.7390   24.6020 H         1 40L         0.0000
     36  H5        -7.0310  -15.4190   23.2530 H         1 40L         0.0000
     37  H6        -9.4000  -15.2390   22.6500 H         1 40L         0.0000
     38  H7        -9.3630  -13.4740   22.9830 H         1 40L         0.0000
     39  H8        -8.3910  -14.1540   21.6350 H         1 40L         0.0000
     40  H9        -4.5870  -11.0380   16.8200 H         1 40L         0.0000
     41  H10       -6.6790   -9.9580   17.6070 H         1 40L         0.0000
     42  H11       -7.5740  -10.5200   19.8470 H         1 40L         0.0000
     43  H12       -1.5890  -14.6530   25.1050 H         1 40L         0.0000
     44  H13       -4.1030  -17.9120   23.8990 H         1 40L         0.0000
     45  H14       -5.8240  -13.6180   24.4340 H         1 40L         0.0000
     46  H15       -7.6330  -11.6880   23.2840 H         1 40L         0.0000
     47  H16       -3.3500  -10.5200   25.5980 H         1 40L         0.0000
     48  H17       -9.1490   -9.9890   24.8500 H         1 40L         0.0000
     49  H18       -9.1330   -7.7560   26.0250 H         1 40L         0.0000
@<TRIPOS>BOND
     1    1   19 ar
     2    1   32 1
     3    2   33 1
     4    3   20 ar
     5    3   34 1
     6    4   22 1
     7    4   35 1
     8    4   36 1
     9    4    5 1
    10    5   37 1
    11    5   38 1
    12    5   39 1
    13    6   29 ar
    14    6   25 ar
    15    7    8 ar
    16    7   12 ar
    17    7   40 1
    18    8    9 ar
    19    8   41 1
    20    9   10 ar
    21    9   42 1
    22   10   14 ar
    23   10   11 ar
    24   11   15 ar
    25   11   12 ar
    26   12   13 1
    27   14   21 ar
    28   15   17 ar
    29   15   16 2
    30   17   21 ar
    31   17   18 1
    32    3   18 ar
    33    1   18 ar
    34    2   19 ar
    35   19   43 1
    36    2   20 ar
    37   20   44 1
    38   21   22 1
    39   22   23 1
    40   22   45 1
    41   23   24 1
    42   23   46 1
    43   24   28 ar
    44    6   24 ar
    45   25   26 ar
    46   25   31 ar
    47   26   27 ar
    48   27   47 1
    49   27   28 ar
    50   29   30 ar
    51   29   48 1
    52   30   31 ar
    53   30   49 1
@<TRIPOS>SUBSTRUCTURE
     1 40L         1 GROUP 0 A     ****
