EUI
  CCTOOLS-0502160706

 51 54  0  0  1  0  0  0  0  0999 V2000
  -31.1580   12.8710   -6.2920 O   0  0  0  0  0
  -30.6740   12.7290   -5.1760 C   0  0  0  0  0
  -31.1960   11.7010   -4.2240 C   0  0  0  0  0
  -30.2890   11.0380   -3.3310 C   0  0  0  0  0
  -30.7470   10.0440   -2.4520 C   0  0  0  0  0
  -32.1190    9.7390   -2.5130 C   0  0  0  0  0
  -32.7780    8.8720   -1.7900 F   0  0  0  0  0
  -32.9780   10.3550   -3.3910 C   0  0  0  0  0
  -34.2420   10.0390   -3.3390 F   0  0  0  0  0
  -32.5580   11.3320   -4.2630 C   0  0  0  0  0
  -33.5470   11.8970   -5.0440 N   0  0  0  0  0
  -34.8100   12.4390   -4.7530 C   0  0  0  0  0
  -35.3320   12.4230   -3.4350 C   0  0  0  0  0
  -36.6090   12.9830   -3.1520 C   0  0  0  0  0
  -37.3470   13.5770   -4.1780 C   0  0  0  0  0
  -39.3310   14.4550   -3.8890 I   0  0  0  0  0
  -35.5700   13.0360   -5.7550 C   0  0  0  0  0
  -35.1060   13.0620   -7.0100 F   0  0  0  0  0
  -36.8320   13.5950   -5.4590 C   0  0  0  0  0
  -29.6500   13.5370   -4.8420 N   0  0  0  0  0
  -28.9250   13.6760   -3.5900 C   0  0  0  0  0
  -28.2250   14.8240   -4.4330 C   0  0  0  0  0
  -29.0660   14.5390   -5.7280 C   0  0  0  0  0
  -28.5980   16.1420   -4.0240 O   0  0  0  0  0
  -26.7130   14.7600   -4.6300 C   0  0  0  0  0
  -26.1890   13.3010   -4.7850 C   0  0  0  0  0
  -24.6570   13.3010   -4.6250 C   0  0  0  0  0
  -24.2860   13.7990   -3.2030 C   0  0  0  0  0
  -24.8170   15.2450   -3.0510 C   0  0  0  0  0
  -26.2470   15.4030   -3.3920 N   0  0  0  0  0
  -29.2430   11.3070   -3.3350 H   0  0  0  0  0
  -30.0820    9.5410   -1.7660 H   0  0  0  0  0
  -33.3170   11.9260   -6.0170 H   0  0  0  0  0
  -34.7540   11.9810   -2.6370 H   0  0  0  0  0
  -37.0060   12.9490   -2.1480 H   0  0  0  0  0
  -37.4080   14.0470   -6.2530 H   0  0  0  0  0
  -29.5150   14.0030   -2.7210 H   0  0  0  0  0
  -28.2870   12.8280   -3.3020 H   0  0  0  0  0
  -28.5070   14.1530   -6.5930 H   0  0  0  0  0
  -29.7380   15.3460   -6.0560 H   0  0  0  0  0
  -28.1480   16.7810   -4.5640 H   0  0  0  0  0
  -26.4230   15.3520   -5.5110 H   0  0  0  0  0
  -26.6410   12.6620   -4.0120 H   0  0  0  0  0
  -26.4560   12.9170   -5.7800 H   0  0  0  0  0
  -26.4310   16.3830   -3.4730 H   0  0  0  0  0
  -24.2730   12.2800   -4.7680 H   0  0  0  0  0
  -24.2100   13.9690   -5.3760 H   0  0  0  0  0
  -24.7500   13.1490   -2.4470 H   0  0  0  0  0
  -23.1930   13.7870   -3.0760 H   0  0  0  0  0
  -24.6750   15.5570   -2.0060 H   0  0  0  0  0
  -24.2300   15.9000   -3.7120 H   0  0  0  0  0
  1  2  2  0  0  0
  2  3  1  0  0  0
  2 20  1  0  0  0
  3  4  1  0  0  0
  3 10  2  0  0  0
  4  5  2  0  0  0
  4 31  1  0  0  0
  5  6  1  0  0  0
  5 32  1  0  0  0
  6  7  1  0  0  0
  6  8  2  0  0  0
  8  9  1  0  0  0
  8 10  1  0  0  0
 10 11  1  0  0  0
 11 12  1  0  0  0
 11 33  1  0  0  0
 12 13  1  0  0  0
 12 17  2  0  0  0
 13 14  2  0  0  0
 13 34  1  0  0  0
 14 15  1  0  0  0
 14 35  1  0  0  0
 15 16  1  0  0  0
 15 19  2  0  0  0
 17 18  1  0  0  0
 17 19  1  0  0  0
 19 36  1  0  0  0
 20 21  1  0  0  0
 20 23  1  0  0  0
 21 22  1  0  0  0
 21 37  1  0  0  0
 21 38  1  0  0  0
 22 23  1  0  0  0
 22 24  1  0  0  0
 22 25  1  0  0  0
 23 39  1  0  0  0
 23 40  1  0  0  0
 24 41  1  0  0  0
 25 26  1  0  0  0
 25 30  1  0  0  0
 25 42  1  0  0  0
 26 27  1  0  0  0
 26 43  1  0  0  0
 26 44  1  0  0  0
 27 28  1  0  0  0
 27 46  1  0  0  0
 27 47  1  0  0  0
 28 29  1  0  0  0
 28 48  1  0  0  0
 28 49  1  0  0  0
 29 30  1  0  0  0
 29 50  1  0  0  0
 29 51  1  0  0  0
 30 45  1  0  0  0
M  END
$$$$
