[3,4-difluoro-2-(2-fluoro-4-iodo-anilino)phenyl]-[3-hydroxy-3-[(2~{S})-2-piperidyl]azetidin-1-yl]methanone
                    3D
 Structure written by MMmdl.
 52 55  0  0  1  0            999 V2000
    1.7426    4.3967   -0.9065 C   0  0  0  0  0  0
    1.3469    5.2853    0.2679 C   0  0  0  0  0  0
    0.1282    4.7264    0.9981 C   0  0  0  0  0  0
    0.3505    3.3471    1.4325 N   0  3  0  0  0  0
    0.6501    2.4635    0.2988 C   0  0  1  0  0  0
   -0.2175    2.5030   -0.3763 H   0  0  0  0  0  0
    1.8974    2.9474   -0.4537 C   0  0  0  0  0  0
    0.8541    1.0435    0.8138 C   0  0  0  0  0  0
   -0.4530    0.2628    1.0798 C   0  0  0  0  0  0
   -0.1854   -0.4628   -0.1466 N   0  0  0  0  0  0
    1.1777    0.0133   -0.2904 C   0  0  0  0  0  0
   -0.9451   -1.2203   -0.9998 C   0  0  0  0  0  0
   -0.5203   -1.7665   -2.0149 O   0  0  0  0  0  0
   -2.3767   -1.3603   -0.6749 C   0  0  0  0  0  0
   -3.3232   -0.4586   -1.1615 C   0  0  0  0  0  0
   -4.6702   -0.6181   -0.8362 C   0  0  0  0  0  0
   -5.0707   -1.6793   -0.0244 C   0  0  0  0  0  0
   -4.1242   -2.5810    0.4622 C   0  0  0  0  0  0
   -2.7772   -2.4215    0.1369 C   0  0  0  0  0  0
   -6.3642   -1.8326    0.2880 F   0  0  0  0  0  0
   -5.5891    0.2421   -1.2978 F   0  0  0  0  0  0
   -2.9359    0.6221   -1.9849 N   0  0  0  0  0  0
   -3.0540    2.0167   -1.8426 C   0  0  0  0  0  0
   -2.5707    2.8652   -2.8388 C   0  0  0  0  0  0
   -2.6891    4.2476   -2.6954 C   0  0  0  0  0  0
   -3.2908    4.7816   -1.5559 C   0  0  0  0  0  0
   -3.7741    3.9331   -0.5598 C   0  0  0  0  0  0
   -3.6557    2.5507   -0.7032 C   0  0  0  0  0  0
   -3.4668    6.8406   -1.3422 I   0  0  0  0  0  0
   -1.9906    2.3626   -3.9380 F   0  0  0  0  0  0
    1.7902    1.0597    1.9125 O   0  0  0  0  0  0
    2.6967    4.7556   -1.3198 H   0  0  0  0  0  0
    0.9621    4.4581   -1.6792 H   0  0  0  0  0  0
    2.1838    5.3472    0.9791 H   0  0  0  0  0  0
    1.1034    6.2928   -0.1003 H   0  0  0  0  0  0
   -0.0816    5.3417    1.8855 H   0  0  0  0  0  0
   -0.7421    4.7440    0.3256 H   0  0  0  0  0  0
    1.1998    3.3150    2.1309 H   0  0  0  0  0  0
    2.0487    2.3030   -1.3322 H   0  0  0  0  0  0
    2.7656    2.8634    0.2165 H   0  0  0  0  0  0
   -0.3758   -0.2645    2.0421 H   0  0  0  0  0  0
   -1.2991    0.9649    1.1133 H   0  0  0  0  0  0
    1.4665    0.5413   -1.2112 H   0  0  0  0  0  0
    2.0073   -0.6293    0.0394 H   0  0  0  0  0  0
   -4.4365   -3.4071    1.0942 H   0  0  0  0  0  0
   -2.0492   -3.1309    0.5224 H   0  0  0  0  0  0
   -2.4367    0.4299   -2.9461 H   0  0  0  0  0  0
   -2.3056    4.8903   -3.4837 H   0  0  0  0  0  0
   -4.2462    4.3283    0.3361 H   0  0  0  0  0  0
   -4.0357    1.8987    0.0792 H   0  0  0  0  0  0
    2.0636    0.1207    2.4160 H   0  0  0  0  0  0
   -0.5525    2.9711    1.9358 H   0  0  0  0  0  0
  1  7  1  0  0  0
  1  2  1  0  0  0
  1 32  1  0  0  0
  1 33  1  0  0  0
  2  3  1  0  0  0
  2 34  1  0  0  0
  2 35  1  0  0  0
  3  4  1  0  0  0
  3 36  1  0  0  0
  3 37  1  0  0  0
  4  5  1  0  0  0
  4 38  1  0  0  0
  4 52  1  0  0  0
  5  6  1  0  0  0
  5  7  1  0  0  0
  5  8  1  0  0  0
  7 39  1  0  0  0
  7 40  1  0  0  0
  8 11  1  0  0  0
  8  9  1  0  0  0
  8 31  1  0  0  0
  9 10  1  0  0  0
  9 41  1  0  0  0
  9 42  1  0  0  0
 10 11  1  0  0  0
 10 12  1  0  0  0
 11 43  1  0  0  0
 11 44  1  0  0  0
 12 13  2  0  0  0
 12 14  1  0  0  0
 14 19  2  0  0  0
 14 15  1  0  0  0
 15 16  2  0  0  0
 15 22  1  0  0  0
 16 17  1  0  0  0
 16 21  1  0  0  0
 17 18  2  0  0  0
 17 20  1  0  0  0
 18 19  1  0  0  0
 18 45  1  0  0  0
 19 46  1  0  0  0
 22 23  1  0  0  0
 22 47  1  0  0  0
 23 28  2  0  0  0
 23 24  1  0  0  0
 24 25  2  0  0  0
 24 30  1  0  0  0
 25 26  1  0  0  0
 25 48  1  0  0  0
 26 27  2  0  0  0
 26 29  1  0  0  0
 27 28  1  0  0  0
 27 49  1  0  0  0
 28 50  1  0  0  0
 31 51  1  0  0  0
M  CHG  1   4   1
M  END
> <s_m_source_file>
/Users/andrea/Development/mcce-charges/epik_inhibitors/output/Cobimetinib/Cobimetinib-input.mol2

> <i_m_source_file_index>
1

> <r_epik_Ionization_Penalty>
  0.0109

> <r_epik_Ionization_Penalty_Charging>
  0.0108

> <r_epik_Ionization_Penalty_Neutral>
  0.0001

> <r_epik_State_Penalty>
  0.0081

> <i_epik_Tot_Q>
1

$$$$
[3,4-difluoro-2-(2-fluoro-4-iodo-anilino)phenyl]-[3-hydroxy-3-[(2~{S})-2-piperidyl]azetidin-1-yl]methanone
                    3D
 Structure written by MMmdl.
 51 54  0  0  1  0            999 V2000
    1.7426    4.3967   -0.9065 C   0  0  0  0  0  0
    1.3469    5.2853    0.2679 C   0  0  0  0  0  0
    0.1282    4.7264    0.9981 C   0  0  0  0  0  0
    0.3505    3.3471    1.4325 N   0  0  0  0  0  0
    0.6501    2.4635    0.2988 C   0  0  1  0  0  0
   -0.2175    2.5030   -0.3763 H   0  0  0  0  0  0
    1.8974    2.9474   -0.4537 C   0  0  0  0  0  0
    0.8541    1.0435    0.8138 C   0  0  0  0  0  0
   -0.4530    0.2628    1.0798 C   0  0  0  0  0  0
   -0.1854   -0.4628   -0.1466 N   0  0  0  0  0  0
    1.1777    0.0133   -0.2904 C   0  0  0  0  0  0
   -0.9451   -1.2203   -0.9998 C   0  0  0  0  0  0
   -0.5203   -1.7665   -2.0149 O   0  0  0  0  0  0
   -2.3767   -1.3603   -0.6749 C   0  0  0  0  0  0
   -3.3232   -0.4586   -1.1615 C   0  0  0  0  0  0
   -4.6702   -0.6181   -0.8362 C   0  0  0  0  0  0
   -5.0707   -1.6793   -0.0244 C   0  0  0  0  0  0
   -4.1242   -2.5810    0.4622 C   0  0  0  0  0  0
   -2.7772   -2.4215    0.1369 C   0  0  0  0  0  0
   -6.3642   -1.8326    0.2880 F   0  0  0  0  0  0
   -5.5891    0.2421   -1.2978 F   0  0  0  0  0  0
   -2.9359    0.6221   -1.9849 N   0  0  0  0  0  0
   -3.0540    2.0167   -1.8426 C   0  0  0  0  0  0
   -2.5707    2.8652   -2.8388 C   0  0  0  0  0  0
   -2.6891    4.2476   -2.6954 C   0  0  0  0  0  0
   -3.2908    4.7816   -1.5559 C   0  0  0  0  0  0
   -3.7741    3.9331   -0.5598 C   0  0  0  0  0  0
   -3.6557    2.5507   -0.7032 C   0  0  0  0  0  0
   -3.4668    6.8406   -1.3422 I   0  0  0  0  0  0
   -1.9906    2.3626   -3.9380 F   0  0  0  0  0  0
    1.7902    1.0597    1.9125 O   0  0  0  0  0  0
    2.6967    4.7556   -1.3198 H   0  0  0  0  0  0
    0.9621    4.4581   -1.6792 H   0  0  0  0  0  0
    2.1838    5.3472    0.9791 H   0  0  0  0  0  0
    1.1034    6.2928   -0.1003 H   0  0  0  0  0  0
   -0.0816    5.3417    1.8855 H   0  0  0  0  0  0
   -0.7421    4.7440    0.3256 H   0  0  0  0  0  0
    1.1998    3.3150    2.1309 H   0  0  0  0  0  0
    2.0487    2.3030   -1.3322 H   0  0  0  0  0  0
    2.7656    2.8634    0.2165 H   0  0  0  0  0  0
   -0.3758   -0.2645    2.0421 H   0  0  0  0  0  0
   -1.2991    0.9649    1.1133 H   0  0  0  0  0  0
    1.4665    0.5413   -1.2112 H   0  0  0  0  0  0
    2.0073   -0.6293    0.0394 H   0  0  0  0  0  0
   -4.4365   -3.4071    1.0942 H   0  0  0  0  0  0
   -2.0492   -3.1309    0.5224 H   0  0  0  0  0  0
   -2.4367    0.4299   -2.9461 H   0  0  0  0  0  0
   -2.3056    4.8903   -3.4837 H   0  0  0  0  0  0
   -4.2462    4.3283    0.3361 H   0  0  0  0  0  0
   -4.0357    1.8987    0.0792 H   0  0  0  0  0  0
    2.0636    0.1207    2.4160 H   0  0  0  0  0  0
  1  7  1  0  0  0
  1  2  1  0  0  0
  1 32  1  0  0  0
  1 33  1  0  0  0
  2  3  1  0  0  0
  2 34  1  0  0  0
  2 35  1  0  0  0
  3  4  1  0  0  0
  3 36  1  0  0  0
  3 37  1  0  0  0
  4  5  1  0  0  0
  4 38  1  0  0  0
  5  6  1  0  0  0
  5  7  1  0  0  0
  5  8  1  0  0  0
  7 39  1  0  0  0
  7 40  1  0  0  0
  8 11  1  0  0  0
  8  9  1  0  0  0
  8 31  1  0  0  0
  9 10  1  0  0  0
  9 41  1  0  0  0
  9 42  1  0  0  0
 10 11  1  0  0  0
 10 12  1  0  0  0
 11 43  1  0  0  0
 11 44  1  0  0  0
 12 13  2  0  0  0
 12 14  1  0  0  0
 14 19  2  0  0  0
 14 15  1  0  0  0
 15 16  2  0  0  0
 15 22  1  0  0  0
 16 17  1  0  0  0
 16 21  1  0  0  0
 17 18  2  0  0  0
 17 20  1  0  0  0
 18 19  1  0  0  0
 18 45  1  0  0  0
 19 46  1  0  0  0
 22 23  1  0  0  0
 22 47  1  0  0  0
 23 28  2  0  0  0
 23 24  1  0  0  0
 24 25  2  0  0  0
 24 30  1  0  0  0
 25 26  1  0  0  0
 25 48  1  0  0  0
 26 27  2  0  0  0
 26 29  1  0  0  0
 27 28  1  0  0  0
 27 49  1  0  0  0
 28 50  1  0  0  0
 31 51  1  0  0  0
M  END
> <s_m_source_file>
/Users/andrea/Development/mcce-charges/epik_inhibitors/output/Cobimetinib/Cobimetinib-input.mol2

> <i_m_source_file_index>
1

> <r_epik_Ionization_Penalty>
  2.3795

> <r_epik_Ionization_Penalty_Charging>
  0.0000

> <r_epik_Ionization_Penalty_Neutral>
  2.3795

> <r_epik_State_Penalty>
  2.5491

> <i_epik_Tot_Q>
0

$$$$
[3,4-difluoro-2-(2-fluoro-4-iodo-anilino)phenyl]-[3-hydroxy-3-[(2~{S})-2-piperidyl]azetidin-1-yl]methanone
                    3D
 Structure written by MMmdl.
 51 54  0  0  1  0            999 V2000
    1.7426    4.3967   -0.9065 C   0  0  0  0  0  0
    1.3469    5.2853    0.2679 C   0  0  0  0  0  0
    0.1282    4.7264    0.9981 C   0  0  0  0  0  0
    0.3505    3.3471    1.4325 N   0  3  0  0  0  0
    0.6501    2.4635    0.2988 C   0  0  1  0  0  0
   -0.2175    2.5030   -0.3763 H   0  0  0  0  0  0
    1.8974    2.9474   -0.4537 C   0  0  0  0  0  0
    0.8541    1.0435    0.8138 C   0  0  0  0  0  0
   -0.4530    0.2628    1.0798 C   0  0  0  0  0  0
   -0.1854   -0.4628   -0.1466 N   0  0  0  0  0  0
    1.1777    0.0133   -0.2904 C   0  0  0  0  0  0
   -0.9451   -1.2203   -0.9998 C   0  0  0  0  0  0
   -0.5203   -1.7665   -2.0149 O   0  0  0  0  0  0
   -2.3767   -1.3603   -0.6749 C   0  0  0  0  0  0
   -3.3232   -0.4586   -1.1615 C   0  0  0  0  0  0
   -4.6702   -0.6181   -0.8362 C   0  0  0  0  0  0
   -5.0707   -1.6793   -0.0244 C   0  0  0  0  0  0
   -4.1242   -2.5810    0.4622 C   0  0  0  0  0  0
   -2.7772   -2.4215    0.1369 C   0  0  0  0  0  0
   -6.3642   -1.8326    0.2880 F   0  0  0  0  0  0
   -5.5891    0.2421   -1.2978 F   0  0  0  0  0  0
   -2.9359    0.6221   -1.9849 N   0  0  0  0  0  0
   -3.0540    2.0167   -1.8426 C   0  0  0  0  0  0
   -2.5707    2.8652   -2.8388 C   0  0  0  0  0  0
   -2.6891    4.2476   -2.6954 C   0  0  0  0  0  0
   -3.2908    4.7816   -1.5559 C   0  0  0  0  0  0
   -3.7741    3.9331   -0.5598 C   0  0  0  0  0  0
   -3.6557    2.5507   -0.7032 C   0  0  0  0  0  0
   -3.4668    6.8406   -1.3422 I   0  0  0  0  0  0
   -1.9906    2.3626   -3.9380 F   0  0  0  0  0  0
    1.7902    1.0597    1.9125 O   0  5  0  0  0  0
    2.6967    4.7556   -1.3198 H   0  0  0  0  0  0
    0.9621    4.4581   -1.6792 H   0  0  0  0  0  0
    2.1838    5.3472    0.9791 H   0  0  0  0  0  0
    1.1034    6.2928   -0.1003 H   0  0  0  0  0  0
   -0.0816    5.3417    1.8855 H   0  0  0  0  0  0
   -0.7421    4.7440    0.3256 H   0  0  0  0  0  0
    1.1998    3.3150    2.1309 H   0  0  0  0  0  0
    2.0487    2.3030   -1.3322 H   0  0  0  0  0  0
    2.7656    2.8634    0.2165 H   0  0  0  0  0  0
   -0.3758   -0.2645    2.0421 H   0  0  0  0  0  0
   -1.2991    0.9649    1.1133 H   0  0  0  0  0  0
    1.4665    0.5413   -1.2112 H   0  0  0  0  0  0
    2.0073   -0.6293    0.0394 H   0  0  0  0  0  0
   -4.4365   -3.4071    1.0942 H   0  0  0  0  0  0
   -2.0492   -3.1309    0.5224 H   0  0  0  0  0  0
   -2.4367    0.4299   -2.9461 H   0  0  0  0  0  0
   -2.3056    4.8903   -3.4837 H   0  0  0  0  0  0
   -4.2462    4.3283    0.3361 H   0  0  0  0  0  0
   -4.0357    1.8987    0.0792 H   0  0  0  0  0  0
   -0.5525    2.9711    1.9358 H   0  0  0  0  0  0
  1  7  1  0  0  0
  1  2  1  0  0  0
  1 32  1  0  0  0
  1 33  1  0  0  0
  2  3  1  0  0  0
  2 34  1  0  0  0
  2 35  1  0  0  0
  3  4  1  0  0  0
  3 36  1  0  0  0
  3 37  1  0  0  0
  4  5  1  0  0  0
  4 38  1  0  0  0
  4 51  1  0  0  0
  5  6  1  0  0  0
  5  7  1  0  0  0
  5  8  1  0  0  0
  7 39  1  0  0  0
  7 40  1  0  0  0
  8 11  1  0  0  0
  8  9  1  0  0  0
  8 31  1  0  0  0
  9 10  1  0  0  0
  9 41  1  0  0  0
  9 42  1  0  0  0
 10 11  1  0  0  0
 10 12  1  0  0  0
 11 43  1  0  0  0
 11 44  1  0  0  0
 12 13  2  0  0  0
 12 14  1  0  0  0
 14 19  2  0  0  0
 14 15  1  0  0  0
 15 16  2  0  0  0
 15 22  1  0  0  0
 16 17  1  0  0  0
 16 21  1  0  0  0
 17 18  2  0  0  0
 17 20  1  0  0  0
 18 19  1  0  0  0
 18 45  1  0  0  0
 19 46  1  0  0  0
 22 23  1  0  0  0
 22 47  1  0  0  0
 23 28  2  0  0  0
 23 24  1  0  0  0
 24 25  2  0  0  0
 24 30  1  0  0  0
 25 26  1  0  0  0
 25 48  1  0  0  0
 26 27  2  0  0  0
 26 29  1  0  0  0
 27 28  1  0  0  0
 27 49  1  0  0  0
 28 50  1  0  0  0
M  CHG  2   4   1  31  -1
M  END
> <s_m_source_file>
/Users/andrea/Development/mcce-charges/epik_inhibitors/output/Cobimetinib/Cobimetinib-input.mol2

> <i_m_source_file_index>
1

> <r_epik_Ionization_Penalty>
  5.2746

> <r_epik_Ionization_Penalty_Charging>
  5.2746

> <r_epik_Ionization_Penalty_Neutral>
  0.0000

> <r_epik_State_Penalty>
  5.5487

> <i_epik_Tot_Q>
0

$$$$
[3,4-difluoro-2-(2-fluoro-4-iodo-anilino)phenyl]-[3-hydroxy-3-[(2~{S})-2-piperidyl]azetidin-1-yl]methanone
                    3D
 Structure written by MMmdl.
 51 54  0  0  1  0            999 V2000
    1.7426    4.3967   -0.9065 C   0  0  0  0  0  0
    1.3469    5.2853    0.2679 C   0  0  0  0  0  0
    0.1282    4.7264    0.9981 C   0  0  0  0  0  0
    0.3505    3.3471    1.4325 N   0  3  0  0  0  0
    0.6501    2.4635    0.2988 C   0  0  1  0  0  0
   -0.2175    2.5030   -0.3763 H   0  0  0  0  0  0
    1.8974    2.9474   -0.4537 C   0  0  0  0  0  0
    0.8541    1.0435    0.8138 C   0  0  0  0  0  0
   -0.4530    0.2628    1.0798 C   0  0  0  0  0  0
   -0.1854   -0.4628   -0.1466 N   0  0  0  0  0  0
    1.1777    0.0133   -0.2904 C   0  0  0  0  0  0
   -0.9451   -1.2203   -0.9998 C   0  0  0  0  0  0
   -0.5203   -1.7665   -2.0149 O   0  0  0  0  0  0
   -2.3767   -1.3603   -0.6749 C   0  0  0  0  0  0
   -3.3232   -0.4586   -1.1615 C   0  0  0  0  0  0
   -4.6702   -0.6181   -0.8362 C   0  0  0  0  0  0
   -5.0707   -1.6793   -0.0244 C   0  0  0  0  0  0
   -4.1242   -2.5810    0.4622 C   0  0  0  0  0  0
   -2.7772   -2.4215    0.1369 C   0  0  0  0  0  0
   -6.3642   -1.8326    0.2880 F   0  0  0  0  0  0
   -5.5891    0.2421   -1.2978 F   0  0  0  0  0  0
   -2.9359    0.6221   -1.9849 N   0  5  0  0  0  0
   -3.0540    2.0167   -1.8426 C   0  0  0  0  0  0
   -2.5707    2.8652   -2.8388 C   0  0  0  0  0  0
   -2.6891    4.2476   -2.6954 C   0  0  0  0  0  0
   -3.2908    4.7816   -1.5559 C   0  0  0  0  0  0
   -3.7741    3.9331   -0.5598 C   0  0  0  0  0  0
   -3.6557    2.5507   -0.7032 C   0  0  0  0  0  0
   -3.4668    6.8406   -1.3422 I   0  0  0  0  0  0
   -1.9906    2.3626   -3.9380 F   0  0  0  0  0  0
    1.7902    1.0597    1.9125 O   0  0  0  0  0  0
    2.6967    4.7556   -1.3198 H   0  0  0  0  0  0
    0.9621    4.4581   -1.6792 H   0  0  0  0  0  0
    2.1838    5.3472    0.9791 H   0  0  0  0  0  0
    1.1034    6.2928   -0.1003 H   0  0  0  0  0  0
   -0.0816    5.3417    1.8855 H   0  0  0  0  0  0
   -0.7421    4.7440    0.3256 H   0  0  0  0  0  0
    1.1998    3.3150    2.1309 H   0  0  0  0  0  0
    2.0487    2.3030   -1.3322 H   0  0  0  0  0  0
    2.7656    2.8634    0.2165 H   0  0  0  0  0  0
   -0.3758   -0.2645    2.0421 H   0  0  0  0  0  0
   -1.2991    0.9649    1.1133 H   0  0  0  0  0  0
    1.4665    0.5413   -1.2112 H   0  0  0  0  0  0
    2.0073   -0.6293    0.0394 H   0  0  0  0  0  0
   -4.4365   -3.4071    1.0942 H   0  0  0  0  0  0
   -2.0492   -3.1309    0.5224 H   0  0  0  0  0  0
   -2.3056    4.8903   -3.4837 H   0  0  0  0  0  0
   -4.2462    4.3283    0.3361 H   0  0  0  0  0  0
   -4.0357    1.8987    0.0792 H   0  0  0  0  0  0
    2.0636    0.1207    2.4160 H   0  0  0  0  0  0
   -0.5525    2.9711    1.9358 H   0  0  0  0  0  0
  1  7  1  0  0  0
  1  2  1  0  0  0
  1 32  1  0  0  0
  1 33  1  0  0  0
  2  3  1  0  0  0
  2 34  1  0  0  0
  2 35  1  0  0  0
  3  4  1  0  0  0
  3 36  1  0  0  0
  3 37  1  0  0  0
  4  5  1  0  0  0
  4 38  1  0  0  0
  4 51  1  0  0  0
  5  6  1  0  0  0
  5  7  1  0  0  0
  5  8  1  0  0  0
  7 39  1  0  0  0
  7 40  1  0  0  0
  8 11  1  0  0  0
  8  9  1  0  0  0
  8 31  1  0  0  0
  9 10  1  0  0  0
  9 41  1  0  0  0
  9 42  1  0  0  0
 10 11  1  0  0  0
 10 12  1  0  0  0
 11 43  1  0  0  0
 11 44  1  0  0  0
 12 13  2  0  0  0
 12 14  1  0  0  0
 14 19  2  0  0  0
 14 15  1  0  0  0
 15 16  2  0  0  0
 15 22  1  0  0  0
 16 17  1  0  0  0
 16 21  1  0  0  0
 17 18  2  0  0  0
 17 20  1  0  0  0
 18 19  1  0  0  0
 18 45  1  0  0  0
 19 46  1  0  0  0
 22 23  1  0  0  0
 23 28  2  0  0  0
 23 24  1  0  0  0
 24 25  2  0  0  0
 24 30  1  0  0  0
 25 26  1  0  0  0
 25 47  1  0  0  0
 26 27  2  0  0  0
 26 29  1  0  0  0
 27 28  1  0  0  0
 27 48  1  0  0  0
 28 49  1  0  0  0
 31 50  1  0  0  0
M  CHG  2   4   1  22  -1
M  END
> <s_m_source_file>
/Users/andrea/Development/mcce-charges/epik_inhibitors/output/Cobimetinib/Cobimetinib-input.mol2

> <i_m_source_file_index>
1

> <r_epik_Ionization_Penalty>
  5.8696

> <r_epik_Ionization_Penalty_Charging>
  5.8695

> <r_epik_Ionization_Penalty_Neutral>
  0.0001

> <r_epik_State_Penalty>
  6.3343

> <i_epik_Tot_Q>
0

$$$$
[3,4-difluoro-2-(2-fluoro-4-iodo-anilino)phenyl]-[3-hydroxy-3-[(2~{S})-2-piperidyl]azetidin-1-yl]methanone
                    3D
 Structure written by MMmdl.
 50 53  0  0  1  0            999 V2000
    1.7426    4.3967   -0.9065 C   0  0  0  0  0  0
    1.3469    5.2853    0.2679 C   0  0  0  0  0  0
    0.1282    4.7264    0.9981 C   0  0  0  0  0  0
    0.3505    3.3471    1.4325 N   0  0  0  0  0  0
    0.6501    2.4635    0.2988 C   0  0  1  0  0  0
   -0.2175    2.5030   -0.3763 H   0  0  0  0  0  0
    1.8974    2.9474   -0.4537 C   0  0  0  0  0  0
    0.8541    1.0435    0.8138 C   0  0  0  0  0  0
   -0.4530    0.2628    1.0798 C   0  0  0  0  0  0
   -0.1854   -0.4628   -0.1466 N   0  0  0  0  0  0
    1.1777    0.0133   -0.2904 C   0  0  0  0  0  0
   -0.9451   -1.2203   -0.9998 C   0  0  0  0  0  0
   -0.5203   -1.7665   -2.0149 O   0  0  0  0  0  0
   -2.3767   -1.3603   -0.6749 C   0  0  0  0  0  0
   -3.3232   -0.4586   -1.1615 C   0  0  0  0  0  0
   -4.6702   -0.6181   -0.8362 C   0  0  0  0  0  0
   -5.0707   -1.6793   -0.0244 C   0  0  0  0  0  0
   -4.1242   -2.5810    0.4622 C   0  0  0  0  0  0
   -2.7772   -2.4215    0.1369 C   0  0  0  0  0  0
   -6.3642   -1.8326    0.2880 F   0  0  0  0  0  0
   -5.5891    0.2421   -1.2978 F   0  0  0  0  0  0
   -2.9359    0.6221   -1.9849 N   0  5  0  0  0  0
   -3.0540    2.0167   -1.8426 C   0  0  0  0  0  0
   -2.5707    2.8652   -2.8388 C   0  0  0  0  0  0
   -2.6891    4.2476   -2.6954 C   0  0  0  0  0  0
   -3.2908    4.7816   -1.5559 C   0  0  0  0  0  0
   -3.7741    3.9331   -0.5598 C   0  0  0  0  0  0
   -3.6557    2.5507   -0.7032 C   0  0  0  0  0  0
   -3.4668    6.8406   -1.3422 I   0  0  0  0  0  0
   -1.9906    2.3626   -3.9380 F   0  0  0  0  0  0
    1.7902    1.0597    1.9125 O   0  0  0  0  0  0
    2.6967    4.7556   -1.3198 H   0  0  0  0  0  0
    0.9621    4.4581   -1.6792 H   0  0  0  0  0  0
    2.1838    5.3472    0.9791 H   0  0  0  0  0  0
    1.1034    6.2928   -0.1003 H   0  0  0  0  0  0
   -0.0816    5.3417    1.8855 H   0  0  0  0  0  0
   -0.7421    4.7440    0.3256 H   0  0  0  0  0  0
    1.1998    3.3150    2.1309 H   0  0  0  0  0  0
    2.0487    2.3030   -1.3322 H   0  0  0  0  0  0
    2.7656    2.8634    0.2165 H   0  0  0  0  0  0
   -0.3758   -0.2645    2.0421 H   0  0  0  0  0  0
   -1.2991    0.9649    1.1133 H   0  0  0  0  0  0
    1.4665    0.5413   -1.2112 H   0  0  0  0  0  0
    2.0073   -0.6293    0.0394 H   0  0  0  0  0  0
   -4.4365   -3.4071    1.0942 H   0  0  0  0  0  0
   -2.0492   -3.1309    0.5224 H   0  0  0  0  0  0
   -2.3056    4.8903   -3.4837 H   0  0  0  0  0  0
   -4.2462    4.3283    0.3361 H   0  0  0  0  0  0
   -4.0357    1.8987    0.0792 H   0  0  0  0  0  0
    2.0636    0.1207    2.4160 H   0  0  0  0  0  0
  1  7  1  0  0  0
  1  2  1  0  0  0
  1 32  1  0  0  0
  1 33  1  0  0  0
  2  3  1  0  0  0
  2 34  1  0  0  0
  2 35  1  0  0  0
  3  4  1  0  0  0
  3 36  1  0  0  0
  3 37  1  0  0  0
  4  5  1  0  0  0
  4 38  1  0  0  0
  5  6  1  0  0  0
  5  7  1  0  0  0
  5  8  1  0  0  0
  7 39  1  0  0  0
  7 40  1  0  0  0
  8 11  1  0  0  0
  8  9  1  0  0  0
  8 31  1  0  0  0
  9 10  1  0  0  0
  9 41  1  0  0  0
  9 42  1  0  0  0
 10 11  1  0  0  0
 10 12  1  0  0  0
 11 43  1  0  0  0
 11 44  1  0  0  0
 12 13  2  0  0  0
 12 14  1  0  0  0
 14 19  2  0  0  0
 14 15  1  0  0  0
 15 16  2  0  0  0
 15 22  1  0  0  0
 16 17  1  0  0  0
 16 21  1  0  0  0
 17 18  2  0  0  0
 17 20  1  0  0  0
 18 19  1  0  0  0
 18 45  1  0  0  0
 19 46  1  0  0  0
 22 23  1  0  0  0
 23 28  2  0  0  0
 23 24  1  0  0  0
 24 25  2  0  0  0
 24 30  1  0  0  0
 25 26  1  0  0  0
 25 47  1  0  0  0
 26 27  2  0  0  0
 26 29  1  0  0  0
 27 28  1  0  0  0
 27 48  1  0  0  0
 28 49  1  0  0  0
 31 50  1  0  0  0
M  CHG  1  22  -1
M  END
> <s_m_source_file>
/Users/andrea/Development/mcce-charges/epik_inhibitors/output/Cobimetinib/Cobimetinib-input.mol2

> <i_m_source_file_index>
1

> <r_epik_Ionization_Penalty>
  8.3955

> <r_epik_Ionization_Penalty_Charging>
  6.0160

> <r_epik_Ionization_Penalty_Neutral>
  2.3795

> <r_epik_State_Penalty>
  8.9152

> <i_epik_Tot_Q>
-1

$$$$
[3,4-difluoro-2-(2-fluoro-4-iodo-anilino)phenyl]-[3-hydroxy-3-[(2~{S})-2-piperidyl]azetidin-1-yl]methanone
                    3D
 Structure written by MMmdl.
 50 53  0  0  1  0            999 V2000
    1.7426    4.3967   -0.9065 C   0  0  0  0  0  0
    1.3469    5.2853    0.2679 C   0  0  0  0  0  0
    0.1282    4.7264    0.9981 C   0  0  0  0  0  0
    0.3505    3.3471    1.4325 N   0  3  0  0  0  0
    0.6501    2.4635    0.2988 C   0  0  1  0  0  0
   -0.2175    2.5030   -0.3763 H   0  0  0  0  0  0
    1.8974    2.9474   -0.4537 C   0  0  0  0  0  0
    0.8541    1.0435    0.8138 C   0  0  0  0  0  0
   -0.4530    0.2628    1.0798 C   0  0  0  0  0  0
   -0.1854   -0.4628   -0.1466 N   0  0  0  0  0  0
    1.1777    0.0133   -0.2904 C   0  0  0  0  0  0
   -0.9451   -1.2203   -0.9998 C   0  0  0  0  0  0
   -0.5203   -1.7665   -2.0149 O   0  0  0  0  0  0
   -2.3767   -1.3603   -0.6749 C   0  0  0  0  0  0
   -3.3232   -0.4586   -1.1615 C   0  0  0  0  0  0
   -4.6702   -0.6181   -0.8362 C   0  0  0  0  0  0
   -5.0707   -1.6793   -0.0244 C   0  0  0  0  0  0
   -4.1242   -2.5810    0.4622 C   0  0  0  0  0  0
   -2.7772   -2.4215    0.1369 C   0  0  0  0  0  0
   -6.3642   -1.8326    0.2880 F   0  0  0  0  0  0
   -5.5891    0.2421   -1.2978 F   0  0  0  0  0  0
   -2.9359    0.6221   -1.9849 N   0  5  0  0  0  0
   -3.0540    2.0167   -1.8426 C   0  0  0  0  0  0
   -2.5707    2.8652   -2.8388 C   0  0  0  0  0  0
   -2.6891    4.2476   -2.6954 C   0  0  0  0  0  0
   -3.2908    4.7816   -1.5559 C   0  0  0  0  0  0
   -3.7741    3.9331   -0.5598 C   0  0  0  0  0  0
   -3.6557    2.5507   -0.7032 C   0  0  0  0  0  0
   -3.4668    6.8406   -1.3422 I   0  0  0  0  0  0
   -1.9906    2.3626   -3.9380 F   0  0  0  0  0  0
    1.7902    1.0597    1.9125 O   0  5  0  0  0  0
    2.6967    4.7556   -1.3198 H   0  0  0  0  0  0
    0.9621    4.4581   -1.6792 H   0  0  0  0  0  0
    2.1838    5.3472    0.9791 H   0  0  0  0  0  0
    1.1034    6.2928   -0.1003 H   0  0  0  0  0  0
   -0.0816    5.3417    1.8855 H   0  0  0  0  0  0
   -0.7421    4.7440    0.3256 H   0  0  0  0  0  0
    1.1998    3.3150    2.1309 H   0  0  0  0  0  0
    2.0487    2.3030   -1.3322 H   0  0  0  0  0  0
    2.7656    2.8634    0.2165 H   0  0  0  0  0  0
   -0.3758   -0.2645    2.0421 H   0  0  0  0  0  0
   -1.2991    0.9649    1.1133 H   0  0  0  0  0  0
    1.4665    0.5413   -1.2112 H   0  0  0  0  0  0
    2.0073   -0.6293    0.0394 H   0  0  0  0  0  0
   -4.4365   -3.4071    1.0942 H   0  0  0  0  0  0
   -2.0492   -3.1309    0.5224 H   0  0  0  0  0  0
   -2.3056    4.8903   -3.4837 H   0  0  0  0  0  0
   -4.2462    4.3283    0.3361 H   0  0  0  0  0  0
   -4.0357    1.8987    0.0792 H   0  0  0  0  0  0
   -0.5525    2.9711    1.9358 H   0  0  0  0  0  0
  1  7  1  0  0  0
  1  2  1  0  0  0
  1 32  1  0  0  0
  1 33  1  0  0  0
  2  3  1  0  0  0
  2 34  1  0  0  0
  2 35  1  0  0  0
  3  4  1  0  0  0
  3 36  1  0  0  0
  3 37  1  0  0  0
  4  5  1  0  0  0
  4 38  1  0  0  0
  4 50  1  0  0  0
  5  6  1  0  0  0
  5  7  1  0  0  0
  5  8  1  0  0  0
  7 39  1  0  0  0
  7 40  1  0  0  0
  8 11  1  0  0  0
  8  9  1  0  0  0
  8 31  1  0  0  0
  9 10  1  0  0  0
  9 41  1  0  0  0
  9 42  1  0  0  0
 10 11  1  0  0  0
 10 12  1  0  0  0
 11 43  1  0  0  0
 11 44  1  0  0  0
 12 13  2  0  0  0
 12 14  1  0  0  0
 14 19  2  0  0  0
 14 15  1  0  0  0
 15 16  2  0  0  0
 15 22  1  0  0  0
 16 17  1  0  0  0
 16 21  1  0  0  0
 17 18  2  0  0  0
 17 20  1  0  0  0
 18 19  1  0  0  0
 18 45  1  0  0  0
 19 46  1  0  0  0
 22 23  1  0  0  0
 23 28  2  0  0  0
 23 24  1  0  0  0
 24 25  2  0  0  0
 24 30  1  0  0  0
 25 26  1  0  0  0
 25 47  1  0  0  0
 26 27  2  0  0  0
 26 29  1  0  0  0
 27 28  1  0  0  0
 27 48  1  0  0  0
 28 49  1  0  0  0
M  CHG  3   4   1  22  -1  31  -1
M  END
> <s_m_source_file>
/Users/andrea/Development/mcce-charges/epik_inhibitors/output/Cobimetinib/Cobimetinib-input.mol2

> <i_m_source_file_index>
1

> <r_epik_Ionization_Penalty>
 11.3246

> <r_epik_Ionization_Penalty_Charging>
 11.3246

> <r_epik_Ionization_Penalty_Neutral>
  0.0000

> <r_epik_State_Penalty>
 11.9835

> <i_epik_Tot_Q>
-1

$$$$
