@<TRIPOS>MOLECULE
[3,4-difluoro-2-(2-fluoro-4-iodo-anilino)phenyl]-[3-hydroxy-3-[(2~{S})-2-piperidyl]azetidin-1-yl]methanone
   51    54     0     0     0
SMALL
USER_CHARGES

@<TRIPOS>ATOM
      1 C1          1.7426    4.3967   -0.9065 C.3       1 COB        -0.0760
      2 C2          1.3469    5.2853    0.2679 C.3       1 COB        -0.1156
      3 C3          0.1282    4.7264    0.9981 C.3       1 COB         0.1535
      4 N1          0.3505    3.3471    1.4325 N.3       1 COB        -0.7972
      5 C4          0.6501    2.4635    0.2988 C.3       1 COB         0.1891
      6 H1         -0.2126    2.4604   -0.3841 H         1 COB         0.0644
      7 C5          1.8974    2.9474   -0.4537 C.3       1 COB        -0.1107
      8 C6          0.8541    1.0435    0.8138 C.3       1 COB         0.1306
      9 C7         -0.4530    0.2628    1.0798 C.3       1 COB         0.0501
     10 N2         -0.1854   -0.4628   -0.1466 N.am      1 COB        -0.4751
     11 C8          1.1777    0.0133   -0.2904 C.3       1 COB         0.0501
     12 C9         -0.9451   -1.2203   -0.9998 C.2       1 COB         0.6664
     13 O1         -0.5203   -1.7665   -2.0149 O.2       1 COB        -0.5805
     14 C10        -2.3767   -1.3603   -0.6749 C.ar      1 COB        -0.1729
     15 C11        -3.3232   -0.4586   -1.1615 C.ar      1 COB         0.1639
     16 C12        -4.6702   -0.6181   -0.8362 C.ar      1 COB         0.0716
     17 C13        -5.0707   -1.6793   -0.0244 C.ar      1 COB         0.1273
     18 C14        -4.1242   -2.5810    0.4622 C.ar      1 COB        -0.1691
     19 C15        -2.7772   -2.4215    0.1369 C.ar      1 COB        -0.0721
     20 F1         -6.3642   -1.8326    0.2880 F         1 COB        -0.1176
     21 F2         -5.5891    0.2421   -1.2978 F         1 COB        -0.1091
     22 N3         -2.9359    0.6221   -1.9849 N.pl3     1 COB        -0.6012
     23 C16        -3.0540    2.0167   -1.8426 C.ar      1 COB         0.1430
     24 C17        -2.5707    2.8652   -2.8388 C.ar      1 COB         0.0807
     25 C18        -2.6891    4.2476   -2.6954 C.ar      1 COB        -0.1019
     26 C19        -3.2908    4.7816   -1.5559 C.ar      1 COB         0.0122
     27 C20        -3.7741    3.9331   -0.5598 C.ar      1 COB        -0.0745
     28 C21        -3.6557    2.5507   -0.7032 C.ar      1 COB        -0.1512
     29 I1         -3.4668    6.8406   -1.3422 I         1 COB        -0.1331
     30 F3         -1.9906    2.3626   -3.9380 F         1 COB        -0.1391
     31 O2          1.7902    1.0597    1.9125 O.3       1 COB        -0.5785
     32 H2          2.6789    4.7537   -1.3491 H         1 COB         0.0446
     33 H3          0.9738    4.4558   -1.6865 H         1 COB         0.0446
     34 H4          2.1905    5.3649    0.9655 H         1 COB         0.0468
     35 H5          1.1323    6.2985   -0.0903 H         1 COB         0.0468
     36 H6         -0.0867    5.3446    1.8766 H         1 COB         0.0533
     37 H7         -0.7585    4.7760    0.3549 H         1 COB         0.0533
     38 H8         -0.4922    3.0127    1.9013 H         1 COB         0.3663
     39 H9          2.7843    2.8601    0.1881 H         1 COB         0.0517
     40 H10         2.0823    2.3084   -1.3255 H         1 COB         0.0517
     41 H11        -0.4434   -0.3821    1.9636 H         1 COB         0.0724
     42 H12        -1.3740    0.8515    1.0572 H         1 COB         0.0724
     43 H13         1.9190   -0.7461   -0.0249 H         1 COB         0.0724
     44 H14         1.3983    0.4191   -1.2813 H         1 COB         0.0724
     45 H15        -4.4365   -3.4071    1.0942 H         1 COB         0.1618
     46 H16        -2.0492   -3.1309    0.5224 H         1 COB         0.1543
     47 H17        -2.4854    0.3324   -2.8468 H         1 COB         0.4338
     48 H18        -2.3056    4.8903   -3.4837 H         1 COB         0.1609
     49 H19        -4.2462    4.3283    0.3361 H         1 COB         0.1497
     50 H20        -4.0357    1.8987    0.0792 H         1 COB         0.1481
     51 H21         1.3905    1.6240    2.5858 H         1 COB         0.4156
@<TRIPOS>BOND
     1    1    7 1
     2    1    2 1
     3    2    3 1
     4    3    4 1
     5    4    5 1
     6    5    6 1
     7    5    7 1
     8    5    8 1
     9    8   11 1
    10    8    9 1
    11    9   10 1
    12   10   11 1
    13   10   12 am
    14   12   13 2
    15   12   14 1
    16   14   19 ar
    17   14   15 ar
    18   15   16 ar
    19   16   17 ar
    20   17   18 ar
    21   18   19 ar
    22   17   20 1
    23   16   21 1
    24   15   22 1
    25   22   23 1
    26   23   28 ar
    27   23   24 ar
    28   24   25 ar
    29   25   26 ar
    30   26   27 ar
    31   27   28 ar
    32   26   29 1
    33   24   30 1
    34    8   31 1
    35    1   32 1
    36    1   33 1
    37    2   34 1
    38    2   35 1
    39    3   36 1
    40    3   37 1
    41    4   38 1
    42    7   39 1
    43    7   40 1
    44    9   41 1
    45    9   42 1
    46   11   43 1
    47   11   44 1
    48   18   45 1
    49   19   46 1
    50   22   47 1
    51   25   48 1
    52   27   49 1
    53   28   50 1
    54   31   51 1
