@<TRIPOS>MOLECULE
[3,4-difluoro-2-(2-fluoro-4-iodo-anilino)phenyl]-[3-hydroxy-3-[(2~{S})-piperidin-1-ium-2-yl]azetidin-1-yl]methanone
   52    55     0     0     0
SMALL
USER_CHARGES

@<TRIPOS>ATOM
      1 C1          1.7426    4.3967   -0.9065 C.3       1 <0>        -0.0949
      2 C2          1.3469    5.2853    0.2679 C.3       1 <0>        -0.1107
      3 C3          0.1282    4.7264    0.9981 C.3       1 <0>         0.1110
      4 N1          0.3505    3.3471    1.4325 N.4       1 <0>        -0.7593
      5 C4          0.6501    2.4635    0.2988 C.3       1 <0>         0.1545
      6 H1         -0.2175    2.5030   -0.3763 H         1 <0>         0.1167
      7 C5          1.8974    2.9474   -0.4537 C.3       1 <0>        -0.1034
      8 C6          0.8541    1.0435    0.8138 C.3       1 <0>         0.0669
      9 C7         -0.4530    0.2628    1.0798 C.3       1 <0>         0.0488
     10 N2         -0.1854   -0.4628   -0.1466 N.am      1 <0>        -0.4631
     11 C8          1.1777    0.0133   -0.2904 C.3       1 <0>         0.0488
     12 C9         -0.9451   -1.2203   -0.9998 C.2       1 <0>         0.6715
     13 O1         -0.5203   -1.7665   -2.0149 O.2       1 <0>        -0.5440
     14 C10        -2.3767   -1.3603   -0.6749 C.ar      1 <0>        -0.2203
     15 C11        -3.3232   -0.4586   -1.1615 C.ar      1 <0>         0.2264
     16 C12        -4.6702   -0.6181   -0.8362 C.ar      1 <0>         0.0378
     17 C13        -5.0707   -1.6793   -0.0244 C.ar      1 <0>         0.1619
     18 C14        -4.1242   -2.5810    0.4622 C.ar      1 <0>        -0.1896
     19 C15        -2.7772   -2.4215    0.1369 C.ar      1 <0>        -0.0670
     20 F1         -6.3642   -1.8326    0.2880 F         1 <0>        -0.1047
     21 F2         -5.5891    0.2421   -1.2978 F         1 <0>        -0.1046
     22 N3         -2.9359    0.6221   -1.9849 N.pl3     1 <0>        -0.6257
     23 C16        -3.0540    2.0167   -1.8426 C.ar      1 <0>         0.1160
     24 C17        -2.5707    2.8652   -2.8388 C.ar      1 <0>         0.0955
     25 C18        -2.6891    4.2476   -2.6954 C.ar      1 <0>        -0.1080
     26 C19        -3.2908    4.7816   -1.5559 C.ar      1 <0>         0.0295
     27 C20        -3.7741    3.9331   -0.5598 C.ar      1 <0>        -0.0792
     28 C21        -3.6557    2.5507   -0.7032 C.ar      1 <0>        -0.1316
     29 I1         -3.4668    6.8406   -1.3422 I         1 <0>        -0.1058
     30 F3         -1.9906    2.3626   -3.9380 F         1 <0>        -0.1391
     31 O2          1.7902    1.0597    1.9125 O.3       1 <0>        -0.6060
     32 H2          2.6967    4.7556   -1.3198 H         1 <0>         0.0825
     33 H3          0.9621    4.4581   -1.6792 H         1 <0>         0.0825
     34 H4          2.1838    5.3472    0.9791 H         1 <0>         0.0900
     35 H5          1.1034    6.2928   -0.1003 H         1 <0>         0.0900
     36 H6         -0.0816    5.3417    1.8855 H         1 <0>         0.1058
     37 H7         -0.7421    4.7440    0.3256 H         1 <0>         0.1058
     38 H8          1.1998    3.3150    2.1309 H         1 <0>         0.4598
     39 H9          2.0487    2.3030   -1.3322 H         1 <0>         0.0910
     40 H10         2.7656    2.8634    0.2165 H         1 <0>         0.0910
     41 H11        -0.3758   -0.2645    2.0421 H         1 <0>         0.0836
     42 H12        -1.2991    0.9649    1.1133 H         1 <0>         0.0836
     43 H13         1.4665    0.5413   -1.2112 H         1 <0>         0.0836
     44 H14         2.0073   -0.6293    0.0394 H         1 <0>         0.0836
     45 H15        -4.4365   -3.4071    1.0942 H         1 <0>         0.1673
     46 H16        -2.0492   -3.1309    0.5224 H         1 <0>         0.1327
     47 H17        -2.4367    0.4299   -2.9461 H         1 <0>         0.4478
     48 H18        -2.3056    4.8903   -3.4837 H         1 <0>         0.1678
     49 H19        -4.2462    4.3283    0.3361 H         1 <0>         0.1599
     50 H20        -4.0357    1.8987    0.0792 H         1 <0>         0.1516
     51 H21         2.0636    0.1207    2.4160 H         1 <0>         0.4525
     52 H22        -0.5525    2.9711    1.9358 H         1 <0>         0.4598
@<TRIPOS>BOND
     1    1    7 1
     2    1    2 1
     3    1   32 1
     4    1   33 1
     5    2    3 1
     6    2   34 1
     7    2   35 1
     8    3    4 1
     9    3   36 1
    10    3   37 1
    11    4    5 1
    12    4   38 1
    13    4   52 1
    14    5    6 1
    15    5    7 1
    16    5    8 1
    17    7   39 1
    18    7   40 1
    19    8   11 1
    20    8    9 1
    21    8   31 1
    22    9   10 1
    23    9   41 1
    24    9   42 1
    25   10   11 1
    26   10   12 am
    27   11   43 1
    28   11   44 1
    29   12   13 2
    30   12   14 1
    31   14   19 ar
    32   14   15 ar
    33   15   16 ar
    34   15   22 1
    35   16   17 ar
    36   16   21 1
    37   17   18 ar
    38   17   20 1
    39   18   19 ar
    40   18   45 1
    41   19   46 1
    42   22   23 1
    43   22   47 1
    44   23   28 ar
    45   23   24 ar
    46   24   25 ar
    47   24   30 1
    48   25   26 ar
    49   25   48 1
    50   26   27 ar
    51   26   29 1
    52   27   28 ar
    53   27   49 1
    54   28   50 1
    55   31   51 1
@<TRIPOS>MOLECULE
[3,4-difluoro-2-(2-fluoro-4-iodo-anilino)phenyl]-[3-hydroxy-3-[(2~{S})-2-piperidyl]azetidin-1-yl]methanone
   51    54     0     0     0
SMALL
USER_CHARGES

@<TRIPOS>ATOM
      1 C1          1.7426    4.3967   -0.9065 C.3       1 <0>        -0.0760
      2 C2          1.3469    5.2853    0.2679 C.3       1 <0>        -0.1156
      3 C3          0.1282    4.7264    0.9981 C.3       1 <0>         0.1535
      4 N1          0.3505    3.3471    1.4325 N.3       1 <0>        -0.7972
      5 C4          0.6501    2.4635    0.2988 C.3       1 <0>         0.1893
      6 H1         -0.2175    2.5030   -0.3763 H         1 <0>         0.0644
      7 C5          1.8974    2.9474   -0.4537 C.3       1 <0>        -0.1107
      8 C6          0.8541    1.0435    0.8138 C.3       1 <0>         0.1306
      9 C7         -0.4530    0.2628    1.0798 C.3       1 <0>         0.0501
     10 N2         -0.1854   -0.4628   -0.1466 N.am      1 <0>        -0.4752
     11 C8          1.1777    0.0133   -0.2904 C.3       1 <0>         0.0501
     12 C9         -0.9451   -1.2203   -0.9998 C.2       1 <0>         0.6665
     13 O1         -0.5203   -1.7665   -2.0149 O.2       1 <0>        -0.5805
     14 C10        -2.3767   -1.3603   -0.6749 C.ar      1 <0>        -0.1729
     15 C11        -3.3232   -0.4586   -1.1615 C.ar      1 <0>         0.1638
     16 C12        -4.6702   -0.6181   -0.8362 C.ar      1 <0>         0.0716
     17 C13        -5.0707   -1.6793   -0.0244 C.ar      1 <0>         0.1273
     18 C14        -4.1242   -2.5810    0.4622 C.ar      1 <0>        -0.1691
     19 C15        -2.7772   -2.4215    0.1369 C.ar      1 <0>        -0.0721
     20 F1         -6.3642   -1.8326    0.2880 F         1 <0>        -0.1176
     21 F2         -5.5891    0.2421   -1.2978 F         1 <0>        -0.1091
     22 N3         -2.9359    0.6221   -1.9849 N.pl3     1 <0>        -0.6011
     23 C16        -3.0540    2.0167   -1.8426 C.ar      1 <0>         0.1430
     24 C17        -2.5707    2.8652   -2.8388 C.ar      1 <0>         0.0808
     25 C18        -2.6891    4.2476   -2.6954 C.ar      1 <0>        -0.1019
     26 C19        -3.2908    4.7816   -1.5559 C.ar      1 <0>         0.0120
     27 C20        -3.7741    3.9331   -0.5598 C.ar      1 <0>        -0.0745
     28 C21        -3.6557    2.5507   -0.7032 C.ar      1 <0>        -0.1512
     29 I1         -3.4668    6.8406   -1.3422 I         1 <0>        -0.1331
     30 F3         -1.9906    2.3626   -3.9380 F         1 <0>        -0.1391
     31 O2          1.7902    1.0597    1.9125 O.3       1 <0>        -0.5785
     32 H2          2.6967    4.7556   -1.3198 H         1 <0>         0.0446
     33 H3          0.9621    4.4581   -1.6792 H         1 <0>         0.0446
     34 H4          2.1838    5.3472    0.9791 H         1 <0>         0.0468
     35 H5          1.1034    6.2928   -0.1003 H         1 <0>         0.0468
     36 H6         -0.0816    5.3417    1.8855 H         1 <0>         0.0533
     37 H7         -0.7421    4.7440    0.3256 H         1 <0>         0.0533
     38 H8          1.1998    3.3150    2.1309 H         1 <0>         0.3663
     39 H9          2.0487    2.3030   -1.3322 H         1 <0>         0.0517
     40 H10         2.7656    2.8634    0.2165 H         1 <0>         0.0517
     41 H11        -0.3758   -0.2645    2.0421 H         1 <0>         0.0724
     42 H12        -1.2991    0.9649    1.1133 H         1 <0>         0.0724
     43 H13         1.4665    0.5413   -1.2112 H         1 <0>         0.0724
     44 H14         2.0073   -0.6293    0.0394 H         1 <0>         0.0724
     45 H15        -4.4365   -3.4071    1.0942 H         1 <0>         0.1618
     46 H16        -2.0492   -3.1309    0.5224 H         1 <0>         0.1543
     47 H17        -2.4367    0.4299   -2.9461 H         1 <0>         0.4338
     48 H18        -2.3056    4.8903   -3.4837 H         1 <0>         0.1608
     49 H19        -4.2462    4.3283    0.3361 H         1 <0>         0.1497
     50 H20        -4.0357    1.8987    0.0792 H         1 <0>         0.1481
     51 H21         2.0636    0.1207    2.4160 H         1 <0>         0.4156
@<TRIPOS>BOND
     1    1    7 1
     2    1    2 1
     3    1   32 1
     4    1   33 1
     5    2    3 1
     6    2   34 1
     7    2   35 1
     8    3    4 1
     9    3   36 1
    10    3   37 1
    11    4    5 1
    12    4   38 1
    13    5    6 1
    14    5    7 1
    15    5    8 1
    16    7   39 1
    17    7   40 1
    18    8   11 1
    19    8    9 1
    20    8   31 1
    21    9   10 1
    22    9   41 1
    23    9   42 1
    24   10   11 1
    25   10   12 am
    26   11   43 1
    27   11   44 1
    28   12   13 2
    29   12   14 1
    30   14   19 ar
    31   14   15 ar
    32   15   16 ar
    33   15   22 1
    34   16   17 ar
    35   16   21 1
    36   17   18 ar
    37   17   20 1
    38   18   19 ar
    39   18   45 1
    40   19   46 1
    41   22   23 1
    42   22   47 1
    43   23   28 ar
    44   23   24 ar
    45   24   25 ar
    46   24   30 1
    47   25   26 ar
    48   25   48 1
    49   26   27 ar
    50   26   29 1
    51   27   28 ar
    52   27   49 1
    53   28   50 1
    54   31   51 1
@<TRIPOS>MOLECULE
1-[3,4-difluoro-2-(2-fluoro-4-iodo-anilino)benzoyl]-3-[(2~{S})-piperidin-1-ium-2-yl]azetidin-3-olate
   51    54     0     0     0
SMALL
USER_CHARGES

@<TRIPOS>ATOM
      1 C1          1.7426    4.3967   -0.9065 C.3       1 <0>        -0.0948
      2 C2          1.3469    5.2853    0.2679 C.3       1 <0>        -0.0966
      3 C3          0.1282    4.7264    0.9981 C.3       1 <0>         0.1107
      4 N1          0.3505    3.3471    1.4325 N.4       1 <0>        -0.7492
      5 C4          0.6501    2.4635    0.2988 C.3       1 <0>         0.0400
      6 H1         -0.2175    2.5030   -0.3763 H         1 <0>         0.0699
      7 C5          1.8974    2.9474   -0.4537 C.3       1 <0>        -0.0947
      8 C6          0.8541    1.0435    0.8138 C.3       1 <0>         0.3922
      9 C7         -0.4530    0.2628    1.0798 C.3       1 <0>         0.0074
     10 N2         -0.1854   -0.4628   -0.1466 N.am      1 <0>        -0.4633
     11 C8          1.1777    0.0133   -0.2904 C.3       1 <0>         0.0074
     12 C9         -0.9451   -1.2203   -0.9998 C.2       1 <0>         0.6682
     13 O1         -0.5203   -1.7665   -2.0149 O.2       1 <0>        -0.6289
     14 C10        -2.3767   -1.3603   -0.6749 C.ar      1 <0>        -0.1747
     15 C11        -3.3232   -0.4586   -1.1615 C.ar      1 <0>         0.2104
     16 C12        -4.6702   -0.6181   -0.8362 C.ar      1 <0>         0.0293
     17 C13        -5.0707   -1.6793   -0.0244 C.ar      1 <0>         0.1376
     18 C14        -4.1242   -2.5810    0.4622 C.ar      1 <0>        -0.1932
     19 C15        -2.7772   -2.4215    0.1369 C.ar      1 <0>        -0.0612
     20 F1         -6.3642   -1.8326    0.2880 F         1 <0>        -0.1246
     21 F2         -5.5891    0.2421   -1.2978 F         1 <0>        -0.1198
     22 N3         -2.9359    0.6221   -1.9849 N.pl3     1 <0>        -0.6300
     23 C16        -3.0540    2.0167   -1.8426 C.ar      1 <0>         0.1479
     24 C17        -2.5707    2.8652   -2.8388 C.ar      1 <0>         0.0890
     25 C18        -2.6891    4.2476   -2.6954 C.ar      1 <0>        -0.1109
     26 C19        -3.2908    4.7816   -1.5559 C.ar      1 <0>         0.0180
     27 C20        -3.7741    3.9331   -0.5598 C.ar      1 <0>        -0.0824
     28 C21        -3.6557    2.5507   -0.7032 C.ar      1 <0>        -0.1411
     29 I1         -3.4668    6.8406   -1.3422 I         1 <0>        -0.1358
     30 F3         -1.9906    2.3626   -3.9380 F         1 <0>        -0.1337
     31 O2          1.7902    1.0597    1.9125 O.3       1 <0>        -0.7824
     32 H2          2.6967    4.7556   -1.3198 H         1 <0>         0.0562
     33 H3          0.9621    4.4581   -1.6792 H         1 <0>         0.0562
     34 H4          2.1838    5.3472    0.9791 H         1 <0>         0.0687
     35 H5          1.1034    6.2928   -0.1003 H         1 <0>         0.0687
     36 H6         -0.0816    5.3417    1.8855 H         1 <0>         0.0813
     37 H7         -0.7421    4.7440    0.3256 H         1 <0>         0.0813
     38 H8          1.1998    3.3150    2.1309 H         1 <0>         0.4597
     39 H9          2.0487    2.3030   -1.3322 H         1 <0>         0.0839
     40 H10         2.7656    2.8634    0.2165 H         1 <0>         0.0839
     41 H11        -0.3758   -0.2645    2.0421 H         1 <0>         0.0420
     42 H12        -1.2991    0.9649    1.1133 H         1 <0>         0.0420
     43 H13         1.4665    0.5413   -1.2112 H         1 <0>         0.0420
     44 H14         2.0073   -0.6293    0.0394 H         1 <0>         0.0420
     45 H15        -4.4365   -3.4071    1.0942 H         1 <0>         0.1546
     46 H16        -2.0492   -3.1309    0.5224 H         1 <0>         0.1431
     47 H17        -2.4367    0.4299   -2.9461 H         1 <0>         0.4627
     48 H18        -2.3056    4.8903   -3.4837 H         1 <0>         0.1608
     49 H19        -4.2462    4.3283    0.3361 H         1 <0>         0.1493
     50 H20        -4.0357    1.8987    0.0792 H         1 <0>         0.1515
     51 H21        -0.5525    2.9711    1.9358 H         1 <0>         0.4597
@<TRIPOS>BOND
     1    1    7 1
     2    1    2 1
     3    1   32 1
     4    1   33 1
     5    2    3 1
     6    2   34 1
     7    2   35 1
     8    3    4 1
     9    3   36 1
    10    3   37 1
    11    4    5 1
    12    4   38 1
    13    4   51 1
    14    5    6 1
    15    5    7 1
    16    5    8 1
    17    7   39 1
    18    7   40 1
    19    8   11 1
    20    8    9 1
    21    8   31 1
    22    9   10 1
    23    9   41 1
    24    9   42 1
    25   10   11 1
    26   10   12 am
    27   11   43 1
    28   11   44 1
    29   12   13 2
    30   12   14 1
    31   14   19 ar
    32   14   15 ar
    33   15   16 ar
    34   15   22 1
    35   16   17 ar
    36   16   21 1
    37   17   18 ar
    38   17   20 1
    39   18   19 ar
    40   18   45 1
    41   19   46 1
    42   22   23 1
    43   22   47 1
    44   23   28 ar
    45   23   24 ar
    46   24   25 ar
    47   24   30 1
    48   25   26 ar
    49   25   48 1
    50   26   27 ar
    51   26   29 1
    52   27   28 ar
    53   27   49 1
    54   28   50 1
