@<TRIPOS>MOLECULE
methyl (3~{Z})-3-[[4-[methyl-[2-(4-methylpiperazin-1-yl)acetyl]amino]anilino]-phenyl-methylene]-2-oxo-indoline-6-carboxylate
   73    77     0     0     0
SMALL
USER_CHARGES

@<TRIPOS>ATOM
      1 C1          8.1765   -3.4963   -2.1483 C.3       1 NIN         0.1481
      2 N1          6.7219   -3.6079   -2.2364 N.3       1 NIN        -0.7193
      3 C2          6.3190   -4.9999   -2.4715 C.3       1 NIN         0.1606
      4 C3          4.7940   -5.1178   -2.5672 C.3       1 NIN         0.1739
      5 N2          4.2684   -4.2471   -3.6257 N.3       1 NIN        -0.7282
      6 C4          4.6702   -2.8549   -3.3902 C.3       1 NIN         0.1739
      7 C5          6.1951   -2.7361   -3.2936 C.3       1 NIN         0.1606
      8 C6          2.8139   -4.3593   -3.7158 C.3       1 NIN         0.1175
      9 C7          2.3608   -3.8697   -5.0742 C.2       1 NIN         0.6623
     10 O1          3.0977   -3.9812   -6.0574 O.2       1 NIN        -0.5605
     11 N3          1.0500   -3.3429   -5.1030 N.am      1 NIN        -0.4176
     12 C8          0.2297   -3.2415   -3.8859 C.3       1 NIN         0.0871
     13 C9          0.4436   -2.8742   -6.3330 C.ar      1 NIN         0.0588
     14 C10        -0.4985   -1.8461   -6.2988 C.ar      1 NIN        -0.1233
     15 C11        -1.0819   -1.3951   -7.4828 C.ar      1 NIN        -0.1195
     16 C12        -0.7232   -1.9723   -8.7010 C.ar      1 NIN         0.1057
     17 C13         0.2189   -3.0004   -8.7351 C.ar      1 NIN        -0.1195
     18 C14         0.8023   -3.4514   -7.5511 C.ar      1 NIN        -0.1233
     19 N4         -1.3131   -1.5164   -9.8982 N.pl3     1 NIN        -0.6277
     20 C15        -0.8940   -0.5327  -10.7238 C.2       1 NIN         0.3115
     21 C16        -1.5261   -0.1593  -11.8591 C.2       1 NIN        -0.2722
     22 C17        -1.1416    0.8779  -12.7936 C.ar      1 NIN        -0.0275
     23 C18        -2.1225    0.8573  -13.7895 C.ar      1 NIN         0.0336
     24 C19        -2.0970    1.7166  -14.8703 C.ar      1 NIN        -0.1142
     25 C20        -1.0397    2.6258  -14.9398 C.ar      1 NIN        -0.1119
     26 C21        -0.0468    2.6548  -13.9423 C.ar      1 NIN        -0.0969
     27 C22        -0.0920    1.7748  -12.8555 C.ar      1 NIN        -0.1172
     28 C23        -0.9623    3.5557  -16.0559 C.2       1 NIN         0.6459
     29 O2         -0.4561    4.6837  -15.9931 O.2       1 NIN        -0.5390
     30 O3         -1.5188    3.0285  -17.1890 O.3       1 NIN        -0.4381
     31 C24        -1.5023    3.8512  -18.3606 C.3       1 NIN         0.1255
     32 N5         -3.0788   -0.1276  -13.5179 N.am      1 NIN        -0.4700
     33 C25        -2.7830   -0.8086  -12.3327 C.2       1 NIN         0.7183
     34 O4         -3.3922   -1.7165  -11.7979 O.2       1 NIN        -0.6487
     35 C26         0.3602    0.1746  -10.3605 C.ar      1 NIN        -0.0891
     36 C27         0.3112    1.3120   -9.5545 C.ar      1 NIN        -0.0993
     37 C28         1.4892    1.9763   -9.2132 C.ar      1 NIN        -0.1344
     38 C29         2.7164    1.5033   -9.6780 C.ar      1 NIN        -0.1165
     39 C30         2.7654    0.3659  -10.4840 C.ar      1 NIN        -0.1344
     40 C31         1.5873   -0.2984  -10.8253 C.ar      1 NIN        -0.0993
     41 H1          8.5563   -4.1495   -1.3584 H         1 NIN         0.0330
     42 H2          8.4635   -2.4660   -1.9212 H         1 NIN         0.0330
     43 H3          8.6361   -3.7871   -3.0968 H         1 NIN         0.0330
     44 H4          6.7779   -5.3910   -3.3898 H         1 NIN         0.0421
     45 H5          6.6620   -5.6299   -1.6418 H         1 NIN         0.0421
     46 H6          4.5424   -6.1623   -2.7876 H         1 NIN         0.0407
     47 H7          4.3429   -4.8711   -1.5963 H         1 NIN         0.0407
     48 H8          4.3274   -2.2249   -4.2200 H         1 NIN         0.0407
     49 H9          4.2106   -2.4642   -2.4721 H         1 NIN         0.0407
     50 H10         6.6465   -2.9812   -4.2647 H         1 NIN         0.0421
     51 H11         6.4461   -1.6916   -3.0719 H         1 NIN         0.0421
     52 H12         2.4187   -3.7385   -2.9177 H         1 NIN         0.0533
     53 H13         2.5812   -5.4098   -3.5729 H         1 NIN         0.0533
     54 H14         0.4132   -2.2779   -3.4294 H         1 NIN         0.0413
     55 H15         0.5137   -4.0393   -3.2123 H         1 NIN         0.0413
     56 H16        -0.8117   -3.3360   -4.1641 H         1 NIN         0.0413
     57 H17        -0.7855   -1.3893   -5.3550 H         1 NIN         0.1469
     58 H18        -1.8150   -0.5936   -7.4449 H         1 NIN         0.1448
     59 H19         0.5058   -3.4571   -9.6789 H         1 NIN         0.1448
     60 H20         1.5354   -4.2531   -7.5900 H         1 NIN         0.1469
     61 H21        -2.1651   -1.9887  -10.1768 H         1 NIN         0.4702
     62 H22        -2.8680    1.6840  -15.6326 H         1 NIN         0.1567
     63 H23         0.7722    3.3679  -14.0085 H         1 NIN         0.1509
     64 H24         0.6778    1.8058  -12.0925 H         1 NIN         0.1494
     65 H25        -1.9738    3.3074  -19.1758 H         1 NIN         0.0501
     66 H26        -0.4700    4.0936  -18.6028 H         1 NIN         0.0501
     67 H27        -2.0597    4.7599  -18.1453 H         1 NIN         0.0501
     68 H28        -3.8776   -0.3113  -14.1136 H         1 NIN         0.3428
     69 H29        -0.6377    1.6929   -9.1844 H         1 NIN         0.1436
     70 H30         1.4512    2.8620   -8.5858 H         1 NIN         0.1378
     71 H31         3.6337    2.0205   -9.4124 H         1 NIN         0.1371
     72 H32         3.7210   -0.0024  -10.8458 H         1 NIN         0.1378
     73 H33         1.6418   -1.1836  -11.4545 H         1 NIN         0.1436
@<TRIPOS>BOND
     1    1    2 1
     2    2    7 1
     3    2    3 1
     4    3    4 1
     5    4    5 1
     6    5    6 1
     7    6    7 1
     8    5    8 1
     9    8    9 1
    10    9   10 2
    11    9   11 am
    12   11   12 1
    13   11   13 1
    14   13   18 ar
    15   13   14 ar
    16   14   15 ar
    17   15   16 ar
    18   16   17 ar
    19   17   18 ar
    20   16   19 1
    21   19   20 1
    22   20   21 2
    23   21   33 1
    24   21   22 1
    25   22   27 ar
    26   22   23 ar
    27   23   24 ar
    28   24   25 ar
    29   25   26 ar
    30   26   27 ar
    31   25   28 1
    32   28   29 2
    33   28   30 1
    34   30   31 1
    35   23   32 1
    36   32   33 am
    37   33   34 2
    38   20   35 1
    39   35   40 ar
    40   35   36 ar
    41   36   37 ar
    42   37   38 ar
    43   38   39 ar
    44   39   40 ar
    45    1   41 1
    46    1   42 1
    47    1   43 1
    48    3   44 1
    49    3   45 1
    50    4   46 1
    51    4   47 1
    52    6   48 1
    53    6   49 1
    54    7   50 1
    55    7   51 1
    56    8   52 1
    57    8   53 1
    58   12   54 1
    59   12   55 1
    60   12   56 1
    61   14   57 1
    62   15   58 1
    63   17   59 1
    64   18   60 1
    65   19   61 1
    66   24   62 1
    67   26   63 1
    68   27   64 1
    69   31   65 1
    70   31   66 1
    71   31   67 1
    72   32   68 1
    73   36   69 1
    74   37   70 1
    75   38   71 1
    76   39   72 1
    77   40   73 1
