@<TRIPOS>MOLECULE
methyl 3-[[4-[methyl-[2-(4-methylpiperazin-4-ium-1-yl)acetyl]amino]anilino]-phenyl-methylene]-2-oxo-indoline-6-carboxylate
   74    78     1     0     0
SMALL
USER_CHARGES

@<TRIPOS>ATOM
      1 C1         21.3310   64.4740   30.7450 C.2       1 XIN        -0.2751
      2 C2         20.9760   63.1320   31.1930 C.ar      1 XIN        -0.0253
      3 C3         20.8030   65.3580   29.8830 C.2       1 XIN         0.3189
      4 C4         22.5800   64.8020   31.4790 C.2       1 XIN         0.7196
      5 C5         21.9510   62.7530   32.0920 C.ar      1 XIN         0.0297
      6 C6         19.9510   62.2800   30.9270 C.ar      1 XIN        -0.1174
      7 C7         19.5670   65.0430   29.1840 C.ar      1 XIN        -0.0945
      8 C11        21.9460   61.5360   32.7280 C.ar      1 XIN        -0.1124
      9 C12        19.9250   61.0470   31.5410 C.ar      1 XIN        -0.0940
     10 C15        21.0950   67.6490   28.8550 C.ar      1 XIN         0.1188
     11 C16        20.8970   60.6570   32.4460 C.ar      1 XIN        -0.1095
     12 C17        17.2270   64.6330   29.3230 C.ar      1 XIN        -0.1340
     13 C18        18.3210   64.6410   27.2250 C.ar      1 XIN        -0.1340
     14 C19        22.1550   68.4590   28.7880 C.ar      1 XIN        -0.0992
     15 C21        20.8490   59.3010   33.0550 C.2       1 XIN         0.6440
     16 C23        22.1340   69.6170   28.0560 C.ar      1 XIN        -0.1461
     17 C24        19.9460   69.1960   27.3650 C.ar      1 XIN        -0.1461
     18 O25        21.9080   58.9770   33.7750 O.3       1 XIN        -0.4397
     19 O26        19.9910   58.5370   32.8490 O.2       1 XIN        -0.5358
     20 C27        21.0450   70.0310   27.3330 C.ar      1 XIN         0.0602
     21 C30        20.6560   72.4280   27.1380 C.2       1 XIN         0.6573
     22 C31        21.8660   71.3300   25.3760 C.3       1 XIN         0.0824
     23 C32        20.1990   72.3990   28.6000 C.3       1 XIN         0.0986
     24 C35        19.6040   74.0660   30.2000 C.3       1 XIN         0.1510
     25 C36        21.8290   73.3870   30.1250 C.3       1 XIN         0.1510
     26 C37        19.9350   75.4220   30.7970 C.3       1 XIN         0.1074
     27 C38        22.2460   74.7440   30.6790 C.3       1 XIN         0.1074
     28 C40        21.6020   76.7500   31.7510 C.3       1 XIN         0.0851
     29 O33        20.6590   73.4410   26.5050 O.2       1 XIN        -0.5415
     30 N34        20.6530   73.5700   29.3270 N.3       1 XIN        -0.7356
     31 N39        21.2120   75.3920   31.4700 N.4       1 XIN        -0.6854
     32 N29        21.1430   71.2580   26.6250 N.am      1 XIN        -0.3942
     33 C20        19.9940   68.0210   28.1170 C.ar      1 XIN        -0.0992
     34 N8         21.3550   66.5720   29.6290 N.pl3     1 XIN        -0.6566
     35 C14        19.5140   64.9250   27.8200 C.ar      1 XIN        -0.1009
     36 C22        17.1770   64.4780   27.9650 C.ar      1 XIN        -0.1159
     37 C13        18.4160   64.9180   29.9220 C.ar      1 XIN        -0.1009
     38 C28        21.8240   57.6660   34.2350 C.3       1 XIN         0.1257
     39 N9         22.8730   63.7300   32.2230 N.am      1 XIN        -0.4668
     40 O10        23.1970   65.7690   31.4040 O.2       1 XIN        -0.6583
     41 H6         19.1660   62.5660   30.2420 H         1 XIN         0.1458
     42 H11        22.7270   61.2670   33.4230 H         1 XIN         0.1615
     43 H12        19.1210   60.3640   31.3090 H         1 XIN         0.1520
     44 H17        16.3300   64.5300   29.9160 H         1 XIN         0.1400
     45 H18        18.2750   64.5420   26.1500 H         1 XIN         0.1400
     46 H19        23.0530   68.1940   29.3260 H         1 XIN         0.1529
     47 H23        23.0200   70.2350   28.0480 H         1 XIN         0.1429
     48 H24        19.0540   69.4500   26.8110 H         1 XIN         0.1429
     49 H31        21.8261   72.3585   24.9880 H         1 XIN         0.0466
     50 H31A       21.4079   70.6451   24.6472 H         1 XIN         0.0466
     51 H31B       22.9143   71.0411   25.5420 H         1 XIN         0.0466
     52 H32        19.1001   72.3709   28.6401 H         1 XIN         0.0730
     53 H32A       20.6070   71.5049   29.0940 H         1 XIN         0.0730
     54 H35        19.4630   73.3339   31.0088 H         1 XIN         0.0770
     55 H35A       18.6796   74.1415   29.6085 H         1 XIN         0.0770
     56 H36        22.6429   72.9765   29.5094 H         1 XIN         0.0770
     57 H36A       21.6171   72.7003   30.9578 H         1 XIN         0.0770
     58 H37        19.9754   76.1751   29.9963 H         1 XIN         0.1140
     59 H37A       19.1588   75.7017   31.5246 H         1 XIN         0.1140
     60 H38        23.1264   74.6207   31.3268 H         1 XIN         0.1140
     61 H38A       22.4947   75.4191   29.8469 H         1 XIN         0.1140
     62 H40        22.5745   76.7533   32.2650 H         1 XIN         0.1066
     63 H40A       20.8456   77.2230   32.3945 H         1 XIN         0.1066
     64 H40B       21.6837   77.3106   30.8081 H         1 XIN         0.1066
     65 H20        19.1290   67.3750   28.1200 H         1 XIN         0.1529
     66 HN8        22.2799   66.8739   30.1423 H         1 XIN         0.4891
     67 H14        20.4050   65.0550   27.2240 H         1 XIN         0.1444
     68 H22        16.2450   64.2290   27.4790 H         1 XIN         0.1386
     69 H13        18.4540   65.0480   30.9940 H         1 XIN         0.1444
     70 H28        22.7185   57.4280   34.8294 H         1 XIN         0.0518
     71 H28A       21.7603   56.9799   33.3775 H         1 XIN         0.0518
     72 H28B       20.9269   57.5541   34.8616 H         1 XIN         0.0518
     73 HN9        23.7808   63.7231   32.8442 H         1 XIN         0.3456
     74 H74        21.0968   74.8119   32.3974 H         1 XIN         0.4435
@<TRIPOS>BOND
     1    1    2 1
     2    1    3 2
     3    1    4 1
     4    2    5 ar
     5    2    6 ar
     6    3    7 1
     7    3   34 1
     8    4   39 am
     9    4   40 2
    10    5    8 ar
    11    5   39 1
    12    6    9 ar
    13    6   41 1
    14    7   35 ar
    15    7   37 ar
    16    8   11 ar
    17    8   42 1
    18    9   11 ar
    19    9   43 1
    20   10   14 ar
    21   10   33 ar
    22   10   34 1
    23   11   15 1
    24   12   36 ar
    25   12   37 ar
    26   12   44 1
    27   13   35 ar
    28   13   36 ar
    29   13   45 1
    30   14   16 ar
    31   14   46 1
    32   15   18 1
    33   15   19 2
    34   16   20 ar
    35   16   47 1
    36   17   20 ar
    37   17   33 ar
    38   17   48 1
    39   18   38 1
    40   20   32 1
    41   21   23 1
    42   21   29 2
    43   21   32 am
    44   22   32 1
    45   22   49 1
    46   22   50 1
    47   22   51 1
    48   23   30 1
    49   23   52 1
    50   23   53 1
    51   24   26 1
    52   24   30 1
    53   24   54 1
    54   24   55 1
    55   25   27 1
    56   25   30 1
    57   25   56 1
    58   25   57 1
    59   26   31 1
    60   26   58 1
    61   26   59 1
    62   27   31 1
    63   27   60 1
    64   27   61 1
    65   28   31 1
    66   28   62 1
    67   28   63 1
    68   28   64 1
    69   31   74 1
    70   33   65 1
    71   34   66 1
    72   35   67 1
    73   36   68 1
    74   37   69 1
    75   38   70 1
    76   38   71 1
    77   38   72 1
    78   39   73 1
@<TRIPOS>SUBSTRUCTURE
     1 XIN         1 GROUP   0 A     ****
@<TRIPOS>MOLECULE
methyl 3-[[4-[methyl-[2-(4-methylpiperazin-1-yl)acetyl]amino]anilino]-phenyl-methylene]-2-oxo-indoline-6-carboxylate
   73    77     1     0     0
SMALL
USER_CHARGES

@<TRIPOS>ATOM
      1 C1         21.3310   64.4740   30.7450 C.2       1 XIN        -0.2345
      2 C2         20.9760   63.1320   31.1930 C.ar      1 XIN        -0.0396
      3 C3         20.8030   65.3580   29.8830 C.2       1 XIN         0.2822
      4 C4         22.5800   64.8020   31.4790 C.2       1 XIN         0.7137
      5 C5         21.9510   62.7530   32.0920 C.ar      1 XIN         0.0349
      6 C6         19.9510   62.2800   30.9270 C.ar      1 XIN        -0.1034
      7 C7         19.5670   65.0430   29.1840 C.ar      1 XIN        -0.0821
      8 C11        21.9460   61.5360   32.7280 C.ar      1 XIN        -0.1181
      9 C12        19.9250   61.0470   31.5410 C.ar      1 XIN        -0.0982
     10 C15        21.0950   67.6490   28.8550 C.ar      1 XIN         0.0978
     11 C16        20.8970   60.6570   32.4460 C.ar      1 XIN        -0.1055
     12 C17        17.2270   64.6330   29.3230 C.ar      1 XIN        -0.1330
     13 C18        18.3210   64.6410   27.2250 C.ar      1 XIN        -0.1330
     14 C19        22.1550   68.4590   28.7880 C.ar      1 XIN        -0.1197
     15 C21        20.8490   59.3010   33.0550 C.2       1 XIN         0.6445
     16 C23        22.1340   69.6170   28.0560 C.ar      1 XIN        -0.1435
     17 C24        19.9460   69.1960   27.3650 C.ar      1 XIN        -0.1435
     18 O25        21.9080   58.9770   33.7750 O.3       1 XIN        -0.4384
     19 O26        19.9910   58.5370   32.8490 O.2       1 XIN        -0.5382
     20 C27        21.0450   70.0310   27.3330 C.ar      1 XIN         0.0738
     21 C30        20.6560   72.4280   27.1380 C.2       1 XIN         0.6581
     22 C31        21.8660   71.3300   25.3760 C.3       1 XIN         0.0878
     23 C32        20.1990   72.3990   28.6000 C.3       1 XIN         0.1180
     24 C35        19.6040   74.0660   30.2000 C.3       1 XIN         0.1788
     25 C36        21.8290   73.3870   30.1250 C.3       1 XIN         0.1788
     26 C37        19.9350   75.4220   30.7970 C.3       1 XIN         0.1695
     27 C38        22.2460   74.7440   30.6790 C.3       1 XIN         0.1695
     28 C40        21.6020   76.7500   31.7510 C.3       1 XIN         0.1590
     29 O33        20.6590   73.4410   26.5050 O.2       1 XIN        -0.5421
     30 N34        20.6530   73.5700   29.3270 N.3       1 XIN        -0.7350
     31 N39        21.2120   75.3920   31.4700 N.3       1 XIN        -0.7377
     32 N29        21.1430   71.2580   26.6250 N.am      1 XIN        -0.4102
     33 C20        19.9940   68.0210   28.1170 C.ar      1 XIN        -0.1197
     34 N8         21.3550   66.5720   29.6290 N.pl3     1 XIN        -0.6125
     35 C14        19.5140   64.9250   27.8200 C.ar      1 XIN        -0.1004
     36 C22        17.1770   64.4780   27.9650 C.ar      1 XIN        -0.1172
     37 C13        18.4160   64.9180   29.9220 C.ar      1 XIN        -0.1004
     38 C28        21.8240   57.6660   34.2350 C.3       1 XIN         0.1261
     39 N9         22.8730   63.7300   32.2230 N.am      1 XIN        -0.4702
     40 O10        23.1970   65.7690   31.4040 O.2       1 XIN        -0.6368
     41 H6         19.1660   62.5660   30.2420 H         1 XIN         0.1545
     42 H11        22.7270   61.2670   33.4230 H         1 XIN         0.1596
     43 H12        19.1210   60.3640   31.3090 H         1 XIN         0.1537
     44 H17        16.3300   64.5300   29.9160 H         1 XIN         0.1378
     45 H18        18.2750   64.5420   26.1500 H         1 XIN         0.1378
     46 H19        23.0530   68.1940   29.3260 H         1 XIN         0.1417
     47 H23        23.0200   70.2350   28.0480 H         1 XIN         0.1430
     48 H24        19.0540   69.4500   26.8110 H         1 XIN         0.1430
     49 H31        21.8261   72.3585   24.9880 H         1 XIN         0.0417
     50 H31A       21.4079   70.6451   24.6472 H         1 XIN         0.0417
     51 H31B       22.9143   71.0411   25.5420 H         1 XIN         0.0417
     52 H32        19.1001   72.3709   28.6401 H         1 XIN         0.0558
     53 H32A       20.6070   71.5049   29.0940 H         1 XIN         0.0558
     54 H35        19.4630   73.3339   31.0088 H         1 XIN         0.0372
     55 H35A       18.6796   74.1415   29.6085 H         1 XIN         0.0372
     56 H36        22.6429   72.9765   29.5094 H         1 XIN         0.0372
     57 H36A       21.6171   72.7003   30.9578 H         1 XIN         0.0372
     58 H37        19.9754   76.1751   29.9963 H         1 XIN         0.0406
     59 H37A       19.1588   75.7017   31.5246 H         1 XIN         0.0406
     60 H38        23.1264   74.6207   31.3268 H         1 XIN         0.0406
     61 H38A       22.4947   75.4191   29.8469 H         1 XIN         0.0406
     62 H40        22.5745   76.7533   32.2650 H         1 XIN         0.0329
     63 H40A       20.8456   77.2230   32.3945 H         1 XIN         0.0329
     64 H40B       21.6837   77.3106   30.8081 H         1 XIN         0.0329
     65 H20        19.1290   67.3750   28.1200 H         1 XIN         0.1417
     66 HN8        22.2799   66.8739   30.1423 H         1 XIN         0.4430
     67 H14        20.4050   65.0550   27.2240 H         1 XIN         0.1424
     68 H22        16.2450   64.2290   27.4790 H         1 XIN         0.1369
     69 H13        18.4540   65.0480   30.9940 H         1 XIN         0.1424
     70 H28        22.7185   57.4280   34.8294 H         1 XIN         0.0507
     71 H28A       21.7603   56.9799   33.3775 H         1 XIN         0.0507
     72 H28B       20.9269   57.5541   34.8616 H         1 XIN         0.0507
     73 HN9        23.7808   63.7231   32.8442 H         1 XIN         0.3444
@<TRIPOS>BOND
     1    1    2 1
     2    1    3 2
     3    1    4 1
     4    2    5 ar
     5    2    6 ar
     6    3    7 1
     7    3   34 1
     8    4   39 am
     9    4   40 2
    10    5    8 ar
    11    5   39 1
    12    6    9 ar
    13    6   41 1
    14    7   35 ar
    15    7   37 ar
    16    8   11 ar
    17    8   42 1
    18    9   11 ar
    19    9   43 1
    20   10   14 ar
    21   10   33 ar
    22   10   34 1
    23   11   15 1
    24   12   36 ar
    25   12   37 ar
    26   12   44 1
    27   13   35 ar
    28   13   36 ar
    29   13   45 1
    30   14   16 ar
    31   14   46 1
    32   15   18 1
    33   15   19 2
    34   16   20 ar
    35   16   47 1
    36   17   20 ar
    37   17   33 ar
    38   17   48 1
    39   18   38 1
    40   20   32 1
    41   21   23 1
    42   21   29 2
    43   21   32 am
    44   22   32 1
    45   22   49 1
    46   22   50 1
    47   22   51 1
    48   23   30 1
    49   23   52 1
    50   23   53 1
    51   24   26 1
    52   24   30 1
    53   24   54 1
    54   24   55 1
    55   25   27 1
    56   25   30 1
    57   25   56 1
    58   25   57 1
    59   26   31 1
    60   26   58 1
    61   26   59 1
    62   27   31 1
    63   27   60 1
    64   27   61 1
    65   28   31 1
    66   28   62 1
    67   28   63 1
    68   28   64 1
    69   33   65 1
    70   34   66 1
    71   35   67 1
    72   36   68 1
    73   37   69 1
    74   38   70 1
    75   38   71 1
    76   38   72 1
    77   39   73 1
@<TRIPOS>SUBSTRUCTURE
     1 XIN         1 GROUP   0 A     ****
@<TRIPOS>MOLECULE
methyl 3-[[4-[methyl-[2-(4-methylpiperazin-1-ium-1-yl)acetyl]amino]anilino]-phenyl-methylene]-2-oxo-indoline-6-carboxylate
   74    78     1     0     0
SMALL
USER_CHARGES

@<TRIPOS>ATOM
      1 C1         21.3310   64.4740   30.7450 C.2       1 XIN        -0.2369
      2 C2         20.9760   63.1320   31.1930 C.ar      1 XIN        -0.0439
      3 C3         20.8030   65.3580   29.8830 C.2       1 XIN         0.2859
      4 C4         22.5800   64.8020   31.4790 C.2       1 XIN         0.7171
      5 C5         21.9510   62.7530   32.0920 C.ar      1 XIN         0.0334
      6 C6         19.9510   62.2800   30.9270 C.ar      1 XIN        -0.1064
      7 C7         19.5670   65.0430   29.1840 C.ar      1 XIN        -0.0934
      8 C11        21.9460   61.5360   32.7280 C.ar      1 XIN        -0.1120
      9 C12        19.9250   61.0470   31.5410 C.ar      1 XIN        -0.0962
     10 C15        21.0950   67.6490   28.8550 C.ar      1 XIN         0.1437
     11 C16        20.8970   60.6570   32.4460 C.ar      1 XIN        -0.0994
     12 C17        17.2270   64.6330   29.3230 C.ar      1 XIN        -0.1335
     13 C18        18.3210   64.6410   27.2250 C.ar      1 XIN        -0.1335
     14 C19        22.1550   68.4590   28.7880 C.ar      1 XIN        -0.1140
     15 C21        20.8490   59.3010   33.0550 C.2       1 XIN         0.6419
     16 C23        22.1340   69.6170   28.0560 C.ar      1 XIN        -0.1242
     17 C24        19.9460   69.1960   27.3650 C.ar      1 XIN        -0.1242
     18 O25        21.9080   58.9770   33.7750 O.3       1 XIN        -0.4387
     19 O26        19.9910   58.5370   32.8490 O.2       1 XIN        -0.5315
     20 C27        21.0450   70.0310   27.3330 C.ar      1 XIN         0.0110
     21 C30        20.6560   72.4280   27.1380 C.2       1 XIN         0.6459
     22 C31        21.8660   71.3300   25.3760 C.3       1 XIN         0.0612
     23 C32        20.1990   72.3990   28.6000 C.3       1 XIN         0.0234
     24 C35        19.6040   74.0660   30.2000 C.3       1 XIN         0.1087
     25 C36        21.8290   73.3870   30.1250 C.3       1 XIN         0.1087
     26 C37        19.9350   75.4220   30.7970 C.3       1 XIN         0.1436
     27 C38        22.2460   74.7440   30.6790 C.3       1 XIN         0.1436
     28 C40        21.6020   76.7500   31.7510 C.3       1 XIN         0.1507
     29 O33        20.6590   73.4410   26.5050 O.2       1 XIN        -0.6072
     30 N34        20.6530   73.5700   29.3270 N.4       1 XIN        -0.6770
     31 N39        21.2120   75.3920   31.4700 N.3       1 XIN        -0.7407
     32 N29        21.1430   71.2580   26.6250 N.am      1 XIN        -0.3322
     33 C20        19.9940   68.0210   28.1170 C.ar      1 XIN        -0.1140
     34 N8         21.3550   66.5720   29.6290 N.pl3     1 XIN        -0.6459
     35 C14        19.5140   64.9250   27.8200 C.ar      1 XIN        -0.1026
     36 C22        17.1770   64.4780   27.9650 C.ar      1 XIN        -0.1143
     37 C13        18.4160   64.9180   29.9220 C.ar      1 XIN        -0.1026
     38 C28        21.8240   57.6660   34.2350 C.3       1 XIN         0.1258
     39 N9         22.8730   63.7300   32.2230 N.am      1 XIN        -0.4650
     40 O10        23.1970   65.7690   31.4040 O.2       1 XIN        -0.6496
     41 H6         19.1660   62.5660   30.2420 H         1 XIN         0.1485
     42 H11        22.7270   61.2670   33.4230 H         1 XIN         0.1639
     43 H12        19.1210   60.3640   31.3090 H         1 XIN         0.1563
     44 H17        16.3300   64.5300   29.9160 H         1 XIN         0.1418
     45 H18        18.2750   64.5420   26.1500 H         1 XIN         0.1418
     46 H19        23.0530   68.1940   29.3260 H         1 XIN         0.1587
     47 H23        23.0200   70.2350   28.0480 H         1 XIN         0.1497
     48 H24        19.0540   69.4500   26.8110 H         1 XIN         0.1497
     49 H31        21.8261   72.3585   24.9880 H         1 XIN         0.0615
     50 H31A       21.4079   70.6451   24.6472 H         1 XIN         0.0615
     51 H31B       22.9143   71.0411   25.5420 H         1 XIN         0.0615
     52 H32        19.1001   72.3709   28.6401 H         1 XIN         0.1191
     53 H32A       20.6070   71.5049   29.0940 H         1 XIN         0.1191
     54 H35        19.4630   73.3339   31.0088 H         1 XIN         0.1108
     55 H35A       18.6796   74.1415   29.6085 H         1 XIN         0.1108
     56 H36        22.6429   72.9765   29.5094 H         1 XIN         0.1108
     57 H36A       21.6171   72.7003   30.9578 H         1 XIN         0.1108
     58 H37        19.9754   76.1751   29.9963 H         1 XIN         0.0773
     59 H37A       19.1588   75.7017   31.5246 H         1 XIN         0.0773
     60 H38        23.1264   74.6207   31.3268 H         1 XIN         0.0773
     61 H38A       22.4947   75.4191   29.8469 H         1 XIN         0.0773
     62 H40        22.5745   76.7533   32.2650 H         1 XIN         0.0578
     63 H40A       20.8456   77.2230   32.3945 H         1 XIN         0.0578
     64 H40B       21.6837   77.3106   30.8081 H         1 XIN         0.0578
     65 H20        19.1290   67.3750   28.1200 H         1 XIN         0.1587
     66 HN8        22.2799   66.8739   30.1423 H         1 XIN         0.4746
     67 H14        20.4050   65.0550   27.2240 H         1 XIN         0.1430
     68 H22        16.2450   64.2290   27.4790 H         1 XIN         0.1408
     69 H13        18.4540   65.0480   30.9940 H         1 XIN         0.1430
     70 H28        22.7185   57.4280   34.8294 H         1 XIN         0.0531
     71 H28A       21.7603   56.9799   33.3775 H         1 XIN         0.0531
     72 H28B       20.9269   57.5541   34.8616 H         1 XIN         0.0531
     73 HN9        23.7808   63.7231   32.8442 H         1 XIN         0.3494
     74 H74        20.9261   74.2867   28.5385 H         1 XIN         0.4666
@<TRIPOS>BOND
     1    1    2 1
     2    1    3 2
     3    1    4 1
     4    2    5 ar
     5    2    6 ar
     6    3    7 1
     7    3   34 1
     8    4   39 am
     9    4   40 2
    10    5    8 ar
    11    5   39 1
    12    6    9 ar
    13    6   41 1
    14    7   35 ar
    15    7   37 ar
    16    8   11 ar
    17    8   42 1
    18    9   11 ar
    19    9   43 1
    20   10   14 ar
    21   10   33 ar
    22   10   34 1
    23   11   15 1
    24   12   36 ar
    25   12   37 ar
    26   12   44 1
    27   13   35 ar
    28   13   36 ar
    29   13   45 1
    30   14   16 ar
    31   14   46 1
    32   15   18 1
    33   15   19 2
    34   16   20 ar
    35   16   47 1
    36   17   20 ar
    37   17   33 ar
    38   17   48 1
    39   18   38 1
    40   20   32 1
    41   21   23 1
    42   21   29 2
    43   21   32 am
    44   22   32 1
    45   22   49 1
    46   22   50 1
    47   22   51 1
    48   23   30 1
    49   23   52 1
    50   23   53 1
    51   24   26 1
    52   24   30 1
    53   24   54 1
    54   24   55 1
    55   25   27 1
    56   25   30 1
    57   25   56 1
    58   25   57 1
    59   26   31 1
    60   26   58 1
    61   26   59 1
    62   27   31 1
    63   27   60 1
    64   27   61 1
    65   28   31 1
    66   28   62 1
    67   28   63 1
    68   28   64 1
    69   30   74 1
    70   33   65 1
    71   34   66 1
    72   35   67 1
    73   36   68 1
    74   37   69 1
    75   38   70 1
    76   38   71 1
    77   38   72 1
    78   39   73 1
@<TRIPOS>SUBSTRUCTURE
     1 XIN         1 GROUP   0 A     ****
