@<TRIPOS>MOLECULE
methyl (3~{Z})-3-[[4-[methyl-[2-(4-methylpiperazin-1-yl)acetyl]amino]anilino]-phenyl-methylene]-2-oxo-indoline-6-carboxylate
74   78    1
SMALL
USER_CHARGES


@<TRIPOS>ATOM
      1 C1          8.1765   -3.4963   -2.1483 C.3       1 NIN         0.1481 
      2 N1          6.7219   -3.6079   -2.2364 N.4       1 NIN        -0.7193 
      3 C2          6.3190   -4.9999   -2.4715 C.3       1 NIN         0.1606 
      4 C3          4.7940   -5.1178   -2.5672 C.3       1 NIN         0.1739 
      5 N2          4.2684   -4.2471   -3.6257 N.3       1 NIN        -0.7282 
      6 C4          4.6702   -2.8549   -3.3902 C.3       1 NIN         0.1739 
      7 C5          6.1951   -2.7361   -3.2936 C.3       1 NIN         0.1606 
      8 C6          2.8139   -4.3593   -3.7158 C.3       1 NIN         0.1175 
      9 C7          2.3608   -3.8697   -5.0742 C.2       1 NIN         0.6623 
     10 O1          3.0977   -3.9812   -6.0574 O.2       1 NIN        -0.5605 
     11 N3          1.0500   -3.3429   -5.1030 N.am      1 NIN        -0.4176 
     12 C8          0.2297   -3.2415   -3.8859 C.3       1 NIN         0.0871 
     13 C9          0.4436   -2.8742   -6.3330 C.ar      1 NIN         0.0588 
     14 C10        -0.4985   -1.8461   -6.2988 C.ar      1 NIN        -0.1233 
     15 C11        -1.0819   -1.3951   -7.4828 C.ar      1 NIN        -0.1195 
     16 C12        -0.7232   -1.9723   -8.7010 C.ar      1 NIN         0.1057 
     17 C13         0.2189   -3.0004   -8.7351 C.ar      1 NIN        -0.1195 
     18 C14         0.8023   -3.4514   -7.5511 C.ar      1 NIN        -0.1233 
     19 N4         -1.3131   -1.5164   -9.8982 N.pl3     1 NIN        -0.6277 
     20 C15        -0.8940   -0.5327  -10.7238 C.2       1 NIN         0.3115 
     21 C16        -1.5261   -0.1593  -11.8591 C.2       1 NIN        -0.2722 
     22 C17        -1.1416    0.8779  -12.7936 C.ar      1 NIN        -0.0275 
     23 C18        -2.1225    0.8573  -13.7895 C.ar      1 NIN         0.0336 
     24 C19        -2.0970    1.7166  -14.8703 C.ar      1 NIN        -0.1142 
     25 C20        -1.0397    2.6258  -14.9398 C.ar      1 NIN        -0.1119 
     26 C21        -0.0468    2.6548  -13.9423 C.ar      1 NIN        -0.0969 
     27 C22        -0.0920    1.7748  -12.8555 C.ar      1 NIN        -0.1172 
     28 C23        -0.9623    3.5557  -16.0559 C.2       1 NIN         0.6459 
     29 O2         -0.4561    4.6837  -15.9931 O.2       1 NIN        -0.5390 
     30 O3         -1.5188    3.0285  -17.1890 O.3       1 NIN        -0.4381 
     31 C24        -1.5023    3.8512  -18.3606 C.3       1 NIN         0.1255 
     32 N5         -3.0788   -0.1276  -13.5179 N.am      1 NIN        -0.4700 
     33 C25        -2.7830   -0.8086  -12.3327 C.2       1 NIN         0.7183 
     34 O4         -3.3922   -1.7165  -11.7979 O.2       1 NIN        -0.6487 
     35 C26         0.3602    0.1746  -10.3605 C.ar      1 NIN        -0.0891 
     36 C27         0.3112    1.3120   -9.5545 C.ar      1 NIN        -0.0993 
     37 C28         1.4892    1.9763   -9.2132 C.ar      1 NIN        -0.1344 
     38 C29         2.7164    1.5033   -9.6780 C.ar      1 NIN        -0.1165 
     39 C30         2.7654    0.3659  -10.4840 C.ar      1 NIN        -0.1344 
     40 C31         1.5873   -0.2984  -10.8253 C.ar      1 NIN        -0.0993 
     41 H1          8.5473   -4.1572   -1.3510 H         1 NIN         0.0330 
     42 H2          8.4512   -2.4560   -1.9196 H         1 NIN         0.0330 
     43 H3          8.6257   -3.7917   -3.1080 H         1 NIN         0.0330 
     44 H4          6.7614   -5.3555   -3.4137 H         1 NIN         0.0421 
     45 H5          6.6713   -5.6289   -1.6407 H         1 NIN         0.0421 
     46 H6          4.5203   -6.1584   -2.7960 H         1 NIN         0.0407 
     47 H7          4.3425   -4.8223   -1.6087 H         1 NIN         0.0407 
     48 H8          4.3180   -2.2261   -4.2212 H         1 NIN         0.0407 
     49 H9          4.2270   -2.4997   -2.4482 H         1 NIN         0.0407 
     50 H10         6.4551   -1.6908   -3.0704 H         1 NIN         0.0421 
     51 H11         6.6344   -3.0249   -4.2598 H         1 NIN         0.0421 
     52 H12         2.5185   -5.4107   -3.5847 H         1 NIN         0.0533 
     53 H13         2.3494   -3.7471   -2.9287 H         1 NIN         0.0533 
     54 H14        -0.7483   -2.8058   -4.1382 H         1 NIN         0.0413 
     55 H15         0.7393   -2.5990   -3.1528 H         1 NIN         0.0413 
     56 H16         0.0849   -4.2439   -3.4568 H         1 NIN         0.0413 
     57 H17        -0.7855   -1.3893   -5.3550 H         1 NIN         0.1469 
     58 H18        -1.8150   -0.5936   -7.4449 H         1 NIN         0.1448 
     59 H19         0.5058   -3.4571   -9.6789 H         1 NIN         0.1448 
     60 H20         1.5354   -4.2531   -7.5900 H         1 NIN         0.1469 
     61 H21        -2.2400   -1.9805  -10.2661 H         1 NIN         0.4702 
     62 H22        -2.8680    1.6840  -15.6326 H         1 NIN         0.1567 
     63 H23         0.7722    3.3679  -14.0085 H         1 NIN         0.1509 
     64 H24         0.6778    1.8058  -12.0925 H         1 NIN         0.1494 
     65 H25        -1.9770    3.3122  -19.1938 H         1 NIN         0.0501 
     66 H26        -0.4620    4.0920  -18.6249 H         1 NIN         0.0501 
     67 H27        -2.0552    4.7814  -18.1632 H         1 NIN         0.0501 
     68 H28        -3.9242   -0.2778  -14.2055 H         1 NIN         0.3428 
     69 H29        -0.6377    1.6929   -9.1844 H         1 NIN         0.1436 
     70 H30         1.4512    2.8620   -8.5858 H         1 NIN         0.1378 
     71 H31         3.6337    2.0205   -9.4124 H         1 NIN         0.1371 
     72 H32         3.7210   -0.0024  -10.8458 H         1 NIN         0.1378 
     73 H33         1.6418   -1.1836  -11.4545 H         1 NIN         0.1436 
     74 H74         6.3022   -3.2812   -1.2735 H         1 NIN         0.0000 
@<TRIPOS>BOND
     1    1    2 1    
     2    1   41 1    
     3    1   42 1    
     4    1   43 1    
     5    2    7 1    
     6    2    3 1    
     7    2   74 1    
     8    3    4 1    
     9    3   44 1    
    10    3   45 1    
    11    4    5 1    
    12    4   46 1    
    13    4   47 1    
    14    5    6 1    
    15    5    8 1    
    16    6    7 1    
    17    6   48 1    
    18    6   49 1    
    19    7   50 1    
    20    7   51 1    
    21    8    9 1    
    22    8   52 1    
    23    8   53 1    
    24    9   10 2    
    25    9   11 am   BACKBONE|DICT|INTERRES
    26   11   12 1    
    27   11   13 1    
    28   12   54 1    
    29   12   55 1    
    30   12   56 1    
    31   13   18 ar   
    32   13   14 ar   
    33   14   15 ar   
    34   14   57 1    
    35   15   16 ar   
    36   15   58 1    
    37   16   17 ar   
    38   16   19 1    
    39   17   18 ar   
    40   17   59 1    
    41   18   60 1    
    42   19   20 1    
    43   19   61 1    
    44   20   21 2    
    45   20   35 1    
    46   21   33 1    
    47   21   22 1    
    48   22   27 ar   
    49   22   23 ar   
    50   23   24 ar   
    51   23   32 1    
    52   24   25 ar   
    53   24   62 1    
    54   25   26 ar   
    55   25   28 1    
    56   26   27 ar   
    57   26   63 1    
    58   27   64 1    
    59   28   29 2    
    60   28   30 1    
    61   30   31 1    
    62   31   65 1    
    63   31   66 1    
    64   31   67 1    
    65   32   33 am   BACKBONE|DICT|INTERRES
    66   32   68 1    
    67   33   34 2    
    68   35   40 ar   
    69   35   36 ar   
    70   36   37 ar   
    71   36   69 1    
    72   37   38 ar   
    73   37   70 1    
    74   38   39 ar   
    75   38   71 1    
    76   39   40 ar   
    77   39   72 1    
    78   40   73 1    
@<TRIPOS>SUBSTRUCTURE
     1 NIN         1 GROUP             0       ****    0 ROOT    
@<TRIPOS>MOLECULE
methyl (3~{Z})-3-[[4-[methyl-[2-(4-methylpiperazin-1-yl)acetyl]amino]anilino]-phenyl-methylene]-2-oxo-indoline-6-carboxylate
73   77    1
SMALL
USER_CHARGES


@<TRIPOS>ATOM
      1 C1          8.1765   -3.4963   -2.1483 C.3       1 NIN         0.1481 
      2 N1          6.7219   -3.6079   -2.2364 N.3       1 NIN        -0.7193 
      3 C2          6.3190   -4.9999   -2.4715 C.3       1 NIN         0.1606 
      4 C3          4.7940   -5.1178   -2.5672 C.3       1 NIN         0.1739 
      5 N2          4.2684   -4.2471   -3.6257 N.3       1 NIN        -0.7282 
      6 C4          4.6702   -2.8549   -3.3902 C.3       1 NIN         0.1739 
      7 C5          6.1951   -2.7361   -3.2936 C.3       1 NIN         0.1606 
      8 C6          2.8139   -4.3593   -3.7158 C.3       1 NIN         0.1175 
      9 C7          2.3608   -3.8697   -5.0742 C.2       1 NIN         0.6623 
     10 O1          3.0977   -3.9812   -6.0574 O.2       1 NIN        -0.5605 
     11 N3          1.0500   -3.3429   -5.1030 N.am      1 NIN        -0.4176 
     12 C8          0.2297   -3.2415   -3.8859 C.3       1 NIN         0.0871 
     13 C9          0.4436   -2.8742   -6.3330 C.ar      1 NIN         0.0588 
     14 C10        -0.4985   -1.8461   -6.2988 C.ar      1 NIN        -0.1233 
     15 C11        -1.0819   -1.3951   -7.4828 C.ar      1 NIN        -0.1195 
     16 C12        -0.7232   -1.9723   -8.7010 C.ar      1 NIN         0.1057 
     17 C13         0.2189   -3.0004   -8.7351 C.ar      1 NIN        -0.1195 
     18 C14         0.8023   -3.4514   -7.5511 C.ar      1 NIN        -0.1233 
     19 N4         -1.3131   -1.5164   -9.8982 N.pl3     1 NIN        -0.6277 
     20 C15        -0.8940   -0.5327  -10.7238 C.2       1 NIN         0.3115 
     21 C16        -1.5261   -0.1593  -11.8591 C.2       1 NIN        -0.2722 
     22 C17        -1.1416    0.8779  -12.7936 C.ar      1 NIN        -0.0275 
     23 C18        -2.1225    0.8573  -13.7895 C.ar      1 NIN         0.0336 
     24 C19        -2.0970    1.7166  -14.8703 C.ar      1 NIN        -0.1142 
     25 C20        -1.0397    2.6258  -14.9398 C.ar      1 NIN        -0.1119 
     26 C21        -0.0468    2.6548  -13.9423 C.ar      1 NIN        -0.0969 
     27 C22        -0.0920    1.7748  -12.8555 C.ar      1 NIN        -0.1172 
     28 C23        -0.9623    3.5557  -16.0559 C.2       1 NIN         0.6459 
     29 O2         -0.4561    4.6837  -15.9931 O.2       1 NIN        -0.5390 
     30 O3         -1.5188    3.0285  -17.1890 O.3       1 NIN        -0.4381 
     31 C24        -1.5023    3.8512  -18.3606 C.3       1 NIN         0.1255 
     32 N5         -3.0788   -0.1276  -13.5179 N.am      1 NIN        -0.4700 
     33 C25        -2.7830   -0.8086  -12.3327 C.2       1 NIN         0.7183 
     34 O4         -3.3922   -1.7165  -11.7979 O.2       1 NIN        -0.6487 
     35 C26         0.3602    0.1746  -10.3605 C.ar      1 NIN        -0.0891 
     36 C27         0.3112    1.3120   -9.5545 C.ar      1 NIN        -0.0993 
     37 C28         1.4892    1.9763   -9.2132 C.ar      1 NIN        -0.1344 
     38 C29         2.7164    1.5033   -9.6780 C.ar      1 NIN        -0.1165 
     39 C30         2.7654    0.3659  -10.4840 C.ar      1 NIN        -0.1344 
     40 C31         1.5873   -0.2984  -10.8253 C.ar      1 NIN        -0.0993 
     41 H1          8.5473   -4.1572   -1.3510 H         1 NIN         0.0330 
     42 H2          8.4512   -2.4560   -1.9196 H         1 NIN         0.0330 
     43 H3          8.6257   -3.7917   -3.1080 H         1 NIN         0.0330 
     44 H4          6.7614   -5.3555   -3.4137 H         1 NIN         0.0421 
     45 H5          6.6713   -5.6289   -1.6407 H         1 NIN         0.0421 
     46 H6          4.5203   -6.1584   -2.7960 H         1 NIN         0.0407 
     47 H7          4.3425   -4.8223   -1.6087 H         1 NIN         0.0407 
     48 H8          4.3180   -2.2261   -4.2212 H         1 NIN         0.0407 
     49 H9          4.2270   -2.4997   -2.4482 H         1 NIN         0.0407 
     50 H10         6.4551   -1.6908   -3.0704 H         1 NIN         0.0421 
     51 H11         6.6344   -3.0249   -4.2598 H         1 NIN         0.0421 
     52 H12         2.5185   -5.4107   -3.5847 H         1 NIN         0.0533 
     53 H13         2.3494   -3.7471   -2.9287 H         1 NIN         0.0533 
     54 H14        -0.7483   -2.8058   -4.1382 H         1 NIN         0.0413 
     55 H15         0.7393   -2.5990   -3.1528 H         1 NIN         0.0413 
     56 H16         0.0849   -4.2439   -3.4568 H         1 NIN         0.0413 
     57 H17        -0.7855   -1.3893   -5.3550 H         1 NIN         0.1469 
     58 H18        -1.8150   -0.5936   -7.4449 H         1 NIN         0.1448 
     59 H19         0.5058   -3.4571   -9.6789 H         1 NIN         0.1448 
     60 H20         1.5354   -4.2531   -7.5900 H         1 NIN         0.1469 
     61 H21        -2.2400   -1.9805  -10.2661 H         1 NIN         0.4702 
     62 H22        -2.8680    1.6840  -15.6326 H         1 NIN         0.1567 
     63 H23         0.7722    3.3679  -14.0085 H         1 NIN         0.1509 
     64 H24         0.6778    1.8058  -12.0925 H         1 NIN         0.1494 
     65 H25        -1.9770    3.3122  -19.1938 H         1 NIN         0.0501 
     66 H26        -0.4620    4.0920  -18.6249 H         1 NIN         0.0501 
     67 H27        -2.0552    4.7814  -18.1632 H         1 NIN         0.0501 
     68 H28        -3.9242   -0.2778  -14.2055 H         1 NIN         0.3428 
     69 H29        -0.6377    1.6929   -9.1844 H         1 NIN         0.1436 
     70 H30         1.4512    2.8620   -8.5858 H         1 NIN         0.1378 
     71 H31         3.6337    2.0205   -9.4124 H         1 NIN         0.1371 
     72 H32         3.7210   -0.0024  -10.8458 H         1 NIN         0.1378 
     73 H33         1.6418   -1.1836  -11.4545 H         1 NIN         0.1436 
@<TRIPOS>BOND
     1    1    2 1    
     2    1   41 1    
     3    1   42 1    
     4    1   43 1    
     5    2    7 1    
     6    2    3 1    
     7    3    4 1    
     8    3   44 1    
     9    3   45 1    
    10    4    5 1    
    11    4   46 1    
    12    4   47 1    
    13    5    6 1    
    14    5    8 1    
    15    6    7 1    
    16    6   48 1    
    17    6   49 1    
    18    7   50 1    
    19    7   51 1    
    20    8    9 1    
    21    8   52 1    
    22    8   53 1    
    23    9   10 2    
    24    9   11 am   BACKBONE|DICT|INTERRES
    25   11   12 1    
    26   11   13 1    
    27   12   54 1    
    28   12   55 1    
    29   12   56 1    
    30   13   18 ar   
    31   13   14 ar   
    32   14   15 ar   
    33   14   57 1    
    34   15   16 ar   
    35   15   58 1    
    36   16   17 ar   
    37   16   19 1    
    38   17   18 ar   
    39   17   59 1    
    40   18   60 1    
    41   19   20 1    
    42   19   61 1    
    43   20   21 2    
    44   20   35 1    
    45   21   33 1    
    46   21   22 1    
    47   22   27 ar   
    48   22   23 ar   
    49   23   24 ar   
    50   23   32 1    
    51   24   25 ar   
    52   24   62 1    
    53   25   26 ar   
    54   25   28 1    
    55   26   27 ar   
    56   26   63 1    
    57   27   64 1    
    58   28   29 2    
    59   28   30 1    
    60   30   31 1    
    61   31   65 1    
    62   31   66 1    
    63   31   67 1    
    64   32   33 am   BACKBONE|DICT|INTERRES
    65   32   68 1    
    66   33   34 2    
    67   35   40 ar   
    68   35   36 ar   
    69   36   37 ar   
    70   36   69 1    
    71   37   38 ar   
    72   37   70 1    
    73   38   39 ar   
    74   38   71 1    
    75   39   40 ar   
    76   39   72 1    
    77   40   73 1    
@<TRIPOS>SUBSTRUCTURE
     1 NIN         1 GROUP             0       ****    0 ROOT    
@<TRIPOS>MOLECULE
methyl (3~{Z})-3-[[4-[methyl-[2-(4-methylpiperazin-1-yl)acetyl]amino]anilino]-phenyl-methylene]-2-oxo-indoline-6-carboxylate
74   78    1
SMALL
USER_CHARGES


@<TRIPOS>ATOM
      1 C1          8.1765   -3.4963   -2.1483 C.3       1 NIN         0.1481 
      2 N1          6.7219   -3.6079   -2.2364 N.3       1 NIN        -0.7193 
      3 C2          6.3190   -4.9999   -2.4715 C.3       1 NIN         0.1606 
      4 C3          4.7940   -5.1178   -2.5672 C.3       1 NIN         0.1739 
      5 N2          4.2684   -4.2471   -3.6257 N.4       1 NIN        -0.7282 
      6 C4          4.6702   -2.8549   -3.3902 C.3       1 NIN         0.1739 
      7 C5          6.1951   -2.7361   -3.2936 C.3       1 NIN         0.1606 
      8 C6          2.8139   -4.3593   -3.7158 C.3       1 NIN         0.1175 
      9 C7          2.3608   -3.8697   -5.0742 C.2       1 NIN         0.6623 
     10 O1          3.0977   -3.9812   -6.0574 O.2       1 NIN        -0.5605 
     11 N3          1.0500   -3.3429   -5.1030 N.am      1 NIN        -0.4176 
     12 C8          0.2297   -3.2415   -3.8859 C.3       1 NIN         0.0871 
     13 C9          0.4436   -2.8742   -6.3330 C.ar      1 NIN         0.0588 
     14 C10        -0.4985   -1.8461   -6.2988 C.ar      1 NIN        -0.1233 
     15 C11        -1.0819   -1.3951   -7.4828 C.ar      1 NIN        -0.1195 
     16 C12        -0.7232   -1.9723   -8.7010 C.ar      1 NIN         0.1057 
     17 C13         0.2189   -3.0004   -8.7351 C.ar      1 NIN        -0.1195 
     18 C14         0.8023   -3.4514   -7.5511 C.ar      1 NIN        -0.1233 
     19 N4         -1.3131   -1.5164   -9.8982 N.pl3     1 NIN        -0.6277 
     20 C15        -0.8940   -0.5327  -10.7238 C.2       1 NIN         0.3115 
     21 C16        -1.5261   -0.1593  -11.8591 C.2       1 NIN        -0.2722 
     22 C17        -1.1416    0.8779  -12.7936 C.ar      1 NIN        -0.0275 
     23 C18        -2.1225    0.8573  -13.7895 C.ar      1 NIN         0.0336 
     24 C19        -2.0970    1.7166  -14.8703 C.ar      1 NIN        -0.1142 
     25 C20        -1.0397    2.6258  -14.9398 C.ar      1 NIN        -0.1119 
     26 C21        -0.0468    2.6548  -13.9423 C.ar      1 NIN        -0.0969 
     27 C22        -0.0920    1.7748  -12.8555 C.ar      1 NIN        -0.1172 
     28 C23        -0.9623    3.5557  -16.0559 C.2       1 NIN         0.6459 
     29 O2         -0.4561    4.6837  -15.9931 O.2       1 NIN        -0.5390 
     30 O3         -1.5188    3.0285  -17.1890 O.3       1 NIN        -0.4381 
     31 C24        -1.5023    3.8512  -18.3606 C.3       1 NIN         0.1255 
     32 N5         -3.0788   -0.1276  -13.5179 N.am      1 NIN        -0.4700 
     33 C25        -2.7830   -0.8086  -12.3327 C.2       1 NIN         0.7183 
     34 O4         -3.3922   -1.7165  -11.7979 O.2       1 NIN        -0.6487 
     35 C26         0.3602    0.1746  -10.3605 C.ar      1 NIN        -0.0891 
     36 C27         0.3112    1.3120   -9.5545 C.ar      1 NIN        -0.0993 
     37 C28         1.4892    1.9763   -9.2132 C.ar      1 NIN        -0.1344 
     38 C29         2.7164    1.5033   -9.6780 C.ar      1 NIN        -0.1165 
     39 C30         2.7654    0.3659  -10.4840 C.ar      1 NIN        -0.1344 
     40 C31         1.5873   -0.2984  -10.8253 C.ar      1 NIN        -0.0993 
     41 H1          8.5473   -4.1572   -1.3510 H         1 NIN         0.0330 
     42 H2          8.4512   -2.4560   -1.9196 H         1 NIN         0.0330 
     43 H3          8.6257   -3.7917   -3.1080 H         1 NIN         0.0330 
     44 H4          6.7614   -5.3555   -3.4137 H         1 NIN         0.0421 
     45 H5          6.6713   -5.6289   -1.6407 H         1 NIN         0.0421 
     46 H6          4.5203   -6.1584   -2.7960 H         1 NIN         0.0407 
     47 H7          4.3425   -4.8223   -1.6087 H         1 NIN         0.0407 
     48 H8          4.3180   -2.2261   -4.2212 H         1 NIN         0.0407 
     49 H9          4.2270   -2.4997   -2.4482 H         1 NIN         0.0407 
     50 H10         6.4551   -1.6908   -3.0704 H         1 NIN         0.0421 
     51 H11         6.6344   -3.0249   -4.2598 H         1 NIN         0.0421 
     52 H12         2.5185   -5.4107   -3.5847 H         1 NIN         0.0533 
     53 H13         2.3494   -3.7471   -2.9287 H         1 NIN         0.0533 
     54 H14        -0.7483   -2.8058   -4.1382 H         1 NIN         0.0413 
     55 H15         0.7393   -2.5990   -3.1528 H         1 NIN         0.0413 
     56 H16         0.0849   -4.2439   -3.4568 H         1 NIN         0.0413 
     57 H17        -0.7855   -1.3893   -5.3550 H         1 NIN         0.1469 
     58 H18        -1.8150   -0.5936   -7.4449 H         1 NIN         0.1448 
     59 H19         0.5058   -3.4571   -9.6789 H         1 NIN         0.1448 
     60 H20         1.5354   -4.2531   -7.5900 H         1 NIN         0.1469 
     61 H21        -2.2400   -1.9805  -10.2661 H         1 NIN         0.4702 
     62 H22        -2.8680    1.6840  -15.6326 H         1 NIN         0.1567 
     63 H23         0.7722    3.3679  -14.0085 H         1 NIN         0.1509 
     64 H24         0.6778    1.8058  -12.0925 H         1 NIN         0.1494 
     65 H25        -1.9770    3.3122  -19.1938 H         1 NIN         0.0501 
     66 H26        -0.4620    4.0920  -18.6249 H         1 NIN         0.0501 
     67 H27        -2.0552    4.7814  -18.1632 H         1 NIN         0.0501 
     68 H28        -3.9242   -0.2778  -14.2055 H         1 NIN         0.3428 
     69 H29        -0.6377    1.6929   -9.1844 H         1 NIN         0.1436 
     70 H30         1.4512    2.8620   -8.5858 H         1 NIN         0.1378 
     71 H31         3.6337    2.0205   -9.4124 H         1 NIN         0.1371 
     72 H32         3.7210   -0.0024  -10.8458 H         1 NIN         0.1378 
     73 H33         1.6418   -1.1836  -11.4545 H         1 NIN         0.1436 
     74 H74         4.6896   -4.5742   -4.5878 H         1 NIN         0.0000 
@<TRIPOS>BOND
     1    1    2 1    
     2    1   41 1    
     3    1   42 1    
     4    1   43 1    
     5    2    7 1    
     6    2    3 1    
     7    3    4 1    
     8    3   44 1    
     9    3   45 1    
    10    4    5 1    
    11    4   46 1    
    12    4   47 1    
    13    5    6 1    
    14    5    8 1    
    15    5   74 1    
    16    6    7 1    
    17    6   48 1    
    18    6   49 1    
    19    7   50 1    
    20    7   51 1    
    21    8    9 1    
    22    8   52 1    
    23    8   53 1    
    24    9   10 2    
    25    9   11 am   BACKBONE|DICT|INTERRES
    26   11   12 1    
    27   11   13 1    
    28   12   54 1    
    29   12   55 1    
    30   12   56 1    
    31   13   18 ar   
    32   13   14 ar   
    33   14   15 ar   
    34   14   57 1    
    35   15   16 ar   
    36   15   58 1    
    37   16   17 ar   
    38   16   19 1    
    39   17   18 ar   
    40   17   59 1    
    41   18   60 1    
    42   19   20 1    
    43   19   61 1    
    44   20   21 2    
    45   20   35 1    
    46   21   33 1    
    47   21   22 1    
    48   22   27 ar   
    49   22   23 ar   
    50   23   24 ar   
    51   23   32 1    
    52   24   25 ar   
    53   24   62 1    
    54   25   26 ar   
    55   25   28 1    
    56   26   27 ar   
    57   26   63 1    
    58   27   64 1    
    59   28   29 2    
    60   28   30 1    
    61   30   31 1    
    62   31   65 1    
    63   31   66 1    
    64   31   67 1    
    65   32   33 am   BACKBONE|DICT|INTERRES
    66   32   68 1    
    67   33   34 2    
    68   35   40 ar   
    69   35   36 ar   
    70   36   37 ar   
    71   36   69 1    
    72   37   38 ar   
    73   37   70 1    
    74   38   39 ar   
    75   38   71 1    
    76   39   40 ar   
    77   39   72 1    
    78   40   73 1    
@<TRIPOS>SUBSTRUCTURE
     1 NIN         1 GROUP             0       ****    0 ROOT    
