XIN
                    3D
 Structure written by MMmdl.
 74 78  0  0  1  0            999 V2000
   21.3310   64.4740   30.7450 C   0  0  0  0  0  0
   20.9760   63.1320   31.1930 C   0  0  0  0  0  0
   20.8030   65.3580   29.8830 C   0  0  0  0  0  0
   22.5800   64.8020   31.4790 C   0  0  0  0  0  0
   21.9510   62.7530   32.0920 C   0  0  0  0  0  0
   19.9510   62.2800   30.9270 C   0  0  0  0  0  0
   19.5670   65.0430   29.1840 C   0  0  0  0  0  0
   21.9460   61.5360   32.7280 C   0  0  0  0  0  0
   19.9250   61.0470   31.5410 C   0  0  0  0  0  0
   21.0950   67.6490   28.8550 C   0  0  0  0  0  0
   20.8970   60.6570   32.4460 C   0  0  0  0  0  0
   17.2270   64.6330   29.3230 C   0  0  0  0  0  0
   18.3210   64.6410   27.2250 C   0  0  0  0  0  0
   22.1550   68.4590   28.7880 C   0  0  0  0  0  0
   20.8490   59.3010   33.0550 C   0  0  0  0  0  0
   22.1340   69.6170   28.0560 C   0  0  0  0  0  0
   19.9460   69.1960   27.3650 C   0  0  0  0  0  0
   21.9080   58.9770   33.7750 O   0  0  0  0  0  0
   19.9910   58.5370   32.8490 O   0  0  0  0  0  0
   21.0450   70.0310   27.3330 C   0  0  0  0  0  0
   20.6560   72.4280   27.1380 C   0  0  0  0  0  0
   21.8660   71.3300   25.3760 C   0  0  0  0  0  0
   20.1990   72.3990   28.6000 C   0  0  0  0  0  0
   19.6040   74.0660   30.2000 C   0  0  0  0  0  0
   21.8290   73.3870   30.1250 C   0  0  0  0  0  0
   19.9350   75.4220   30.7970 C   0  0  0  0  0  0
   22.2460   74.7440   30.6790 C   0  0  0  0  0  0
   21.6020   76.7500   31.7510 C   0  0  0  0  0  0
   20.6590   73.4410   26.5050 O   0  0  0  0  0  0
   20.6530   73.5700   29.3270 N   0  0  0  0  0  0
   21.2120   75.3920   31.4700 N   0  3  0  0  0  0
   21.1430   71.2580   26.6250 N   0  0  0  0  0  0
   19.9940   68.0210   28.1170 C   0  0  0  0  0  0
   21.3550   66.5720   29.6290 N   0  0  0  0  0  0
   19.5140   64.9250   27.8200 C   0  0  0  0  0  0
   17.1770   64.4780   27.9650 C   0  0  0  0  0  0
   18.4160   64.9180   29.9220 C   0  0  0  0  0  0
   21.8240   57.6660   34.2350 C   0  0  0  0  0  0
   22.8730   63.7300   32.2230 N   0  0  0  0  0  0
   23.1970   65.7690   31.4040 O   0  0  0  0  0  0
   19.1660   62.5660   30.2420 H   0  0  0  0  0  0
   22.7270   61.2670   33.4230 H   0  0  0  0  0  0
   19.1210   60.3640   31.3090 H   0  0  0  0  0  0
   16.3300   64.5300   29.9160 H   0  0  0  0  0  0
   18.2750   64.5420   26.1500 H   0  0  0  0  0  0
   23.0530   68.1940   29.3260 H   0  0  0  0  0  0
   23.0200   70.2350   28.0480 H   0  0  0  0  0  0
   19.0540   69.4500   26.8110 H   0  0  0  0  0  0
   21.8261   72.3585   24.9880 H   0  0  0  0  0  0
   21.4079   70.6451   24.6472 H   0  0  0  0  0  0
   22.9143   71.0411   25.5420 H   0  0  0  0  0  0
   19.1001   72.3709   28.6401 H   0  0  0  0  0  0
   20.6070   71.5049   29.0940 H   0  0  0  0  0  0
   19.4630   73.3339   31.0088 H   0  0  0  0  0  0
   18.6796   74.1415   29.6085 H   0  0  0  0  0  0
   22.6429   72.9765   29.5094 H   0  0  0  0  0  0
   21.6171   72.7003   30.9578 H   0  0  0  0  0  0
   19.9754   76.1751   29.9963 H   0  0  0  0  0  0
   19.1588   75.7017   31.5246 H   0  0  0  0  0  0
   23.1264   74.6207   31.3268 H   0  0  0  0  0  0
   22.4947   75.4191   29.8469 H   0  0  0  0  0  0
   22.5745   76.7533   32.2650 H   0  0  0  0  0  0
   20.8456   77.2230   32.3945 H   0  0  0  0  0  0
   21.6837   77.3106   30.8081 H   0  0  0  0  0  0
   19.1290   67.3750   28.1200 H   0  0  0  0  0  0
   22.2799   66.8739   30.1423 H   0  0  0  0  0  0
   20.4050   65.0550   27.2240 H   0  0  0  0  0  0
   16.2450   64.2290   27.4790 H   0  0  0  0  0  0
   18.4540   65.0480   30.9940 H   0  0  0  0  0  0
   22.7185   57.4280   34.8294 H   0  0  0  0  0  0
   21.7603   56.9799   33.3775 H   0  0  0  0  0  0
   20.9269   57.5541   34.8616 H   0  0  0  0  0  0
   23.7808   63.7231   32.8442 H   0  0  0  0  0  0
   21.0968   74.8119   32.3974 H   0  0  0  0  0  0
  1  2  1  0  0  0
  1  3  2  0  0  0
  1  4  1  0  0  0
  2  5  2  0  0  0
  2  6  1  0  0  0
  3  7  1  0  0  0
  3 34  1  0  0  0
  4 39  1  0  0  0
  4 40  2  0  0  0
  5  8  1  0  0  0
  5 39  1  0  0  0
  6  9  2  0  0  0
  6 41  1  0  0  0
  7 35  2  0  0  0
  7 37  1  0  0  0
  8 11  2  0  0  0
  8 42  1  0  0  0
  9 11  1  0  0  0
  9 43  1  0  0  0
 10 14  2  0  0  0
 10 33  1  0  0  0
 10 34  1  0  0  0
 11 15  1  0  0  0
 12 36  1  0  0  0
 12 37  2  0  0  0
 12 44  1  0  0  0
 13 35  1  0  0  0
 13 36  2  0  0  0
 13 45  1  0  0  0
 14 16  1  0  0  0
 14 46  1  0  0  0
 15 18  1  0  0  0
 15 19  2  0  0  0
 16 20  2  0  0  0
 16 47  1  0  0  0
 17 20  1  0  0  0
 17 33  2  0  0  0
 17 48  1  0  0  0
 18 38  1  0  0  0
 20 32  1  0  0  0
 21 23  1  0  0  0
 21 29  2  0  0  0
 21 32  1  0  0  0
 22 32  1  0  0  0
 22 49  1  0  0  0
 22 50  1  0  0  0
 22 51  1  0  0  0
 23 30  1  0  0  0
 23 52  1  0  0  0
 23 53  1  0  0  0
 24 26  1  0  0  0
 24 30  1  0  0  0
 24 54  1  0  0  0
 24 55  1  0  0  0
 25 27  1  0  0  0
 25 30  1  0  0  0
 25 56  1  0  0  0
 25 57  1  0  0  0
 26 31  1  0  0  0
 26 58  1  0  0  0
 26 59  1  0  0  0
 27 31  1  0  0  0
 27 60  1  0  0  0
 27 61  1  0  0  0
 28 31  1  0  0  0
 28 62  1  0  0  0
 28 63  1  0  0  0
 28 64  1  0  0  0
 31 74  1  0  0  0
 33 65  1  0  0  0
 34 66  1  0  0  0
 35 67  1  0  0  0
 36 68  1  0  0  0
 37 69  1  0  0  0
 38 70  1  0  0  0
 38 71  1  0  0  0
 38 72  1  0  0  0
 39 73  1  0  0  0
M  CHG  1  31   1
M  END
> <s_m_source_file>
/Users/choderaj/github/choderalab/mcce-charges/mcce-charges.jchodera/epik_inhibitors/output/Nintedanib/Nintedanib-input.mol2

> <i_m_source_file_index>
1

> <r_lp_tautomer_probability>
0.499999999999422

> <r_epik_Ionization_Penalty>
  0.0663

> <r_epik_Ionization_Penalty_Charging>
  0.0648

> <r_epik_Ionization_Penalty_Neutral>
  0.0015

> <r_epik_State_Penalty>
  0.3298

> <i_epik_Tot_Q>
1

> <s_epik_Chemistry_Notes>
This compound has an ester and may undergo hydrolysis at high or low pH.

$$$$
XIN
                    3D
 Structure written by MMmdl.
 74 78  0  0  1  0            999 V2000
   21.3310   64.4740   30.7450 C   0  0  0  0  0  0
   20.9760   63.1320   31.1930 C   0  0  0  0  0  0
   20.8030   65.3580   29.8830 C   0  0  0  0  0  0
   22.5800   64.8020   31.4790 C   0  0  0  0  0  0
   21.9510   62.7530   32.0920 C   0  0  0  0  0  0
   19.9510   62.2800   30.9270 C   0  0  0  0  0  0
   19.5670   65.0430   29.1840 C   0  0  0  0  0  0
   21.9460   61.5360   32.7280 C   0  0  0  0  0  0
   19.9250   61.0470   31.5410 C   0  0  0  0  0  0
   21.0950   67.6490   28.8550 C   0  0  0  0  0  0
   20.8970   60.6570   32.4460 C   0  0  0  0  0  0
   17.2270   64.6330   29.3230 C   0  0  0  0  0  0
   18.3210   64.6410   27.2250 C   0  0  0  0  0  0
   22.1550   68.4590   28.7880 C   0  0  0  0  0  0
   20.8490   59.3010   33.0550 C   0  0  0  0  0  0
   22.1340   69.6170   28.0560 C   0  0  0  0  0  0
   19.9460   69.1960   27.3650 C   0  0  0  0  0  0
   21.9080   58.9770   33.7750 O   0  0  0  0  0  0
   19.9910   58.5370   32.8490 O   0  0  0  0  0  0
   21.0450   70.0310   27.3330 C   0  0  0  0  0  0
   20.6560   72.4280   27.1380 C   0  0  0  0  0  0
   21.8660   71.3300   25.3760 C   0  0  0  0  0  0
   20.1990   72.3990   28.6000 C   0  0  0  0  0  0
   19.6040   74.0660   30.2000 C   0  0  0  0  0  0
   21.8290   73.3870   30.1250 C   0  0  0  0  0  0
   19.9350   75.4220   30.7970 C   0  0  0  0  0  0
   22.2460   74.7440   30.6790 C   0  0  0  0  0  0
   21.6020   76.7500   31.7510 C   0  0  0  0  0  0
   20.6590   73.4410   26.5050 O   0  0  0  0  0  0
   20.6530   73.5700   29.3270 N   0  3  0  0  0  0
   21.2120   75.3920   31.4700 N   0  0  0  0  0  0
   21.1430   71.2580   26.6250 N   0  0  0  0  0  0
   19.9940   68.0210   28.1170 C   0  0  0  0  0  0
   21.3550   66.5720   29.6290 N   0  0  0  0  0  0
   19.5140   64.9250   27.8200 C   0  0  0  0  0  0
   17.1770   64.4780   27.9650 C   0  0  0  0  0  0
   18.4160   64.9180   29.9220 C   0  0  0  0  0  0
   21.8240   57.6660   34.2350 C   0  0  0  0  0  0
   22.8730   63.7300   32.2230 N   0  0  0  0  0  0
   23.1970   65.7690   31.4040 O   0  0  0  0  0  0
   19.1660   62.5660   30.2420 H   0  0  0  0  0  0
   22.7270   61.2670   33.4230 H   0  0  0  0  0  0
   19.1210   60.3640   31.3090 H   0  0  0  0  0  0
   16.3300   64.5300   29.9160 H   0  0  0  0  0  0
   18.2750   64.5420   26.1500 H   0  0  0  0  0  0
   23.0530   68.1940   29.3260 H   0  0  0  0  0  0
   23.0200   70.2350   28.0480 H   0  0  0  0  0  0
   19.0540   69.4500   26.8110 H   0  0  0  0  0  0
   21.8261   72.3585   24.9880 H   0  0  0  0  0  0
   21.4079   70.6451   24.6472 H   0  0  0  0  0  0
   22.9143   71.0411   25.5420 H   0  0  0  0  0  0
   19.1001   72.3709   28.6401 H   0  0  0  0  0  0
   20.6070   71.5049   29.0940 H   0  0  0  0  0  0
   19.4630   73.3339   31.0088 H   0  0  0  0  0  0
   18.6796   74.1415   29.6085 H   0  0  0  0  0  0
   22.6429   72.9765   29.5094 H   0  0  0  0  0  0
   21.6171   72.7003   30.9578 H   0  0  0  0  0  0
   19.9754   76.1751   29.9963 H   0  0  0  0  0  0
   19.1588   75.7017   31.5246 H   0  0  0  0  0  0
   23.1264   74.6207   31.3268 H   0  0  0  0  0  0
   22.4947   75.4191   29.8469 H   0  0  0  0  0  0
   22.5745   76.7533   32.2650 H   0  0  0  0  0  0
   20.8456   77.2230   32.3945 H   0  0  0  0  0  0
   21.6837   77.3106   30.8081 H   0  0  0  0  0  0
   19.1290   67.3750   28.1200 H   0  0  0  0  0  0
   22.2799   66.8739   30.1423 H   0  0  0  0  0  0
   20.4050   65.0550   27.2240 H   0  0  0  0  0  0
   16.2450   64.2290   27.4790 H   0  0  0  0  0  0
   18.4540   65.0480   30.9940 H   0  0  0  0  0  0
   22.7185   57.4280   34.8294 H   0  0  0  0  0  0
   21.7603   56.9799   33.3775 H   0  0  0  0  0  0
   20.9269   57.5541   34.8616 H   0  0  0  0  0  0
   23.7808   63.7231   32.8442 H   0  0  0  0  0  0
   20.9261   74.2867   28.5385 H   0  0  0  0  0  0
  1  2  1  0  0  0
  1  3  2  0  0  0
  1  4  1  0  0  0
  2  5  2  0  0  0
  2  6  1  0  0  0
  3  7  1  0  0  0
  3 34  1  0  0  0
  4 39  1  0  0  0
  4 40  2  0  0  0
  5  8  1  0  0  0
  5 39  1  0  0  0
  6  9  2  0  0  0
  6 41  1  0  0  0
  7 35  2  0  0  0
  7 37  1  0  0  0
  8 11  2  0  0  0
  8 42  1  0  0  0
  9 11  1  0  0  0
  9 43  1  0  0  0
 10 14  2  0  0  0
 10 33  1  0  0  0
 10 34  1  0  0  0
 11 15  1  0  0  0
 12 36  1  0  0  0
 12 37  2  0  0  0
 12 44  1  0  0  0
 13 35  1  0  0  0
 13 36  2  0  0  0
 13 45  1  0  0  0
 14 16  1  0  0  0
 14 46  1  0  0  0
 15 18  1  0  0  0
 15 19  2  0  0  0
 16 20  2  0  0  0
 16 47  1  0  0  0
 17 20  1  0  0  0
 17 33  2  0  0  0
 17 48  1  0  0  0
 18 38  1  0  0  0
 20 32  1  0  0  0
 21 23  1  0  0  0
 21 29  2  0  0  0
 21 32  1  0  0  0
 22 32  1  0  0  0
 22 49  1  0  0  0
 22 50  1  0  0  0
 22 51  1  0  0  0
 23 30  1  0  0  0
 23 52  1  0  0  0
 23 53  1  0  0  0
 24 26  1  0  0  0
 24 30  1  0  0  0
 24 54  1  0  0  0
 24 55  1  0  0  0
 25 27  1  0  0  0
 25 30  1  0  0  0
 25 56  1  0  0  0
 25 57  1  0  0  0
 26 31  1  0  0  0
 26 58  1  0  0  0
 26 59  1  0  0  0
 27 31  1  0  0  0
 27 60  1  0  0  0
 27 61  1  0  0  0
 28 31  1  0  0  0
 28 62  1  0  0  0
 28 63  1  0  0  0
 28 64  1  0  0  0
 30 74  1  0  0  0
 33 65  1  0  0  0
 34 66  1  0  0  0
 35 67  1  0  0  0
 36 68  1  0  0  0
 37 69  1  0  0  0
 38 70  1  0  0  0
 38 71  1  0  0  0
 38 72  1  0  0  0
 39 73  1  0  0  0
M  CHG  1  30   1
M  END
> <s_m_source_file>
/Users/choderaj/github/choderalab/mcce-charges/mcce-charges.jchodera/epik_inhibitors/output/Nintedanib/Nintedanib-input.mol2

> <i_m_source_file_index>
1

> <r_epik_Ionization_Penalty>
  0.0957

> <r_epik_Ionization_Penalty_Charging>
  0.0952

> <r_epik_Ionization_Penalty_Neutral>
  0.0005

> <r_epik_State_Penalty>
  0.5897

> <i_epik_Tot_Q>
1

> <s_epik_Chemistry_Notes>
This compound has an ester and may undergo hydrolysis at high or low pH.

$$$$
