@<TRIPOS>MOLECULE
methyl (3~{Z})-3-[[4-[methyl-[2-(4-methylpiperazin-1-yl)acetyl]amino]anilino]-phenyl-methylene]-2-oxo-indoline-6-carboxylate
   73    77     0     0     0
SMALL
USER_CHARGES

@<TRIPOS>ATOM
      1 C1          8.1765   -3.4963   -2.1483 C.3       1 <0>         0.1482
      2 N1          6.7219   -3.6079   -2.2364 N.3       1 <0>        -0.7189
      3 C2          6.3190   -4.9999   -2.4715 C.3       1 <0>         0.1603
      4 C3          4.7940   -5.1178   -2.5672 C.3       1 <0>         0.1741
      5 N2          4.2684   -4.2471   -3.6257 N.3       1 <0>        -0.7286
      6 C4          4.6702   -2.8549   -3.3902 C.3       1 <0>         0.1741
      7 C5          6.1951   -2.7361   -3.2936 C.3       1 <0>         0.1603
      8 C6          2.8139   -4.3593   -3.7158 C.3       1 <0>         0.1174
      9 C7          2.3608   -3.8697   -5.0742 C.2       1 <0>         0.6619
     10 O1          3.0977   -3.9812   -6.0574 O.2       1 <0>        -0.5615
     11 N3          1.0500   -3.3429   -5.1030 N.am      1 <0>        -0.4161
     12 C8          0.2297   -3.2415   -3.8859 C.3       1 <0>         0.0870
     13 C9          0.4436   -2.8742   -6.3330 C.ar      1 <0>         0.0584
     14 C10        -0.4985   -1.8461   -6.2988 C.ar      1 <0>        -0.1231
     15 C11        -1.0819   -1.3951   -7.4828 C.ar      1 <0>        -0.1197
     16 C12        -0.7232   -1.9723   -8.7010 C.ar      1 <0>         0.1061
     17 C13         0.2189   -3.0004   -8.7351 C.ar      1 <0>        -0.1197
     18 C14         0.8023   -3.4514   -7.5511 C.ar      1 <0>        -0.1231
     19 N4         -1.3131   -1.5164   -9.8982 N.pl3     1 <0>        -0.6273
     20 C15        -0.8940   -0.5327  -10.7238 C.2       1 <0>         0.3115
     21 C16        -1.5261   -0.1593  -11.8591 C.2       1 <0>        -0.2723
     22 C17        -1.1416    0.8779  -12.7936 C.ar      1 <0>        -0.0272
     23 C18        -2.1225    0.8573  -13.7895 C.ar      1 <0>         0.0340
     24 C19        -2.0970    1.7166  -14.8703 C.ar      1 <0>        -0.1150
     25 C20        -1.0397    2.6258  -14.9398 C.ar      1 <0>        -0.1112
     26 C21        -0.0468    2.6548  -13.9423 C.ar      1 <0>        -0.0963
     27 C22        -0.0920    1.7748  -12.8555 C.ar      1 <0>        -0.1176
     28 C23        -0.9623    3.5557  -16.0559 C.2       1 <0>         0.6454
     29 O2         -0.4561    4.6837  -15.9931 O.2       1 <0>        -0.5404
     30 O3         -1.5188    3.0285  -17.1890 O.3       1 <0>        -0.4392
     31 C24        -1.5023    3.8512  -18.3606 C.3       1 <0>         0.1267
     32 N5         -3.0788   -0.1276  -13.5179 N.am      1 <0>        -0.4699
     33 C25        -2.7830   -0.8086  -12.3327 C.2       1 <0>         0.7176
     34 O4         -3.3922   -1.7165  -11.7979 O.2       1 <0>        -0.6490
     35 C26         0.3602    0.1746  -10.3605 C.ar      1 <0>        -0.0892
     36 C27         0.3112    1.3120   -9.5545 C.ar      1 <0>        -0.0992
     37 C28         1.4892    1.9763   -9.2132 C.ar      1 <0>        -0.1343
     38 C29         2.7164    1.5033   -9.6780 C.ar      1 <0>        -0.1165
     39 C30         2.7654    0.3659  -10.4840 C.ar      1 <0>        -0.1343
     40 C31         1.5873   -0.2984  -10.8253 C.ar      1 <0>        -0.0992
     41 H1          8.5473   -4.1572   -1.3510 H         1 <0>         0.0330
     42 H2          8.4512   -2.4560   -1.9196 H         1 <0>         0.0330
     43 H3          8.6257   -3.7917   -3.1080 H         1 <0>         0.0330
     44 H4          6.7614   -5.3555   -3.4137 H         1 <0>         0.0420
     45 H5          6.6713   -5.6289   -1.6407 H         1 <0>         0.0420
     46 H6          4.5203   -6.1584   -2.7960 H         1 <0>         0.0408
     47 H7          4.3425   -4.8223   -1.6087 H         1 <0>         0.0408
     48 H8          4.3180   -2.2261   -4.2212 H         1 <0>         0.0408
     49 H9          4.2270   -2.4997   -2.4482 H         1 <0>         0.0408
     50 H10         6.4551   -1.6908   -3.0704 H         1 <0>         0.0420
     51 H11         6.6344   -3.0249   -4.2598 H         1 <0>         0.0420
     52 H12         2.5185   -5.4107   -3.5847 H         1 <0>         0.0533
     53 H13         2.3494   -3.7471   -2.9287 H         1 <0>         0.0533
     54 H14        -0.7483   -2.8058   -4.1382 H         1 <0>         0.0413
     55 H15         0.7393   -2.5990   -3.1528 H         1 <0>         0.0413
     56 H16         0.0849   -4.2439   -3.4568 H         1 <0>         0.0413
     57 H17        -0.7855   -1.3893   -5.3550 H         1 <0>         0.1468
     58 H18        -1.8150   -0.5936   -7.4449 H         1 <0>         0.1448
     59 H19         0.5058   -3.4571   -9.6789 H         1 <0>         0.1448
     60 H20         1.5354   -4.2531   -7.5900 H         1 <0>         0.1468
     61 H21        -2.8680    1.6840  -15.6326 H         1 <0>         0.1573
     62 H22         0.7722    3.3679  -14.0085 H         1 <0>         0.1509
     63 H23         0.6778    1.8058  -12.0925 H         1 <0>         0.1494
     64 H24        -1.9770    3.3122  -19.1938 H         1 <0>         0.0503
     65 H25        -0.4620    4.0920  -18.6249 H         1 <0>         0.0503
     66 H26        -2.0552    4.7814  -18.1632 H         1 <0>         0.0503
     67 H27        -0.6377    1.6929   -9.1844 H         1 <0>         0.1435
     68 H28         1.4512    2.8620   -8.5858 H         1 <0>         0.1381
     69 H29         3.6337    2.0205   -9.4124 H         1 <0>         0.1367
     70 H30         3.7210   -0.0024  -10.8458 H         1 <0>         0.1381
     71 H31         1.6418   -1.1836  -11.4545 H         1 <0>         0.1435
     72 H32        -3.9242   -0.2778  -14.2055 H         1 <0>         0.3427
     73 H33        -2.2400   -1.9805  -10.2661 H         1 <0>         0.4709
@<TRIPOS>BOND
     1    1    2 1
     2    1   41 1
     3    1   42 1
     4    1   43 1
     5    2    7 1
     6    2    3 1
     7    3    4 1
     8    3   44 1
     9    3   45 1
    10    4    5 1
    11    4   46 1
    12    4   47 1
    13    5    6 1
    14    5    8 1
    15    6    7 1
    16    6   48 1
    17    6   49 1
    18    7   50 1
    19    7   51 1
    20    8    9 1
    21    8   52 1
    22    8   53 1
    23    9   10 2
    24    9   11 am
    25   11   12 1
    26   11   13 1
    27   12   54 1
    28   12   55 1
    29   12   56 1
    30   13   18 ar
    31   13   14 ar
    32   14   15 ar
    33   14   57 1
    34   15   16 ar
    35   15   58 1
    36   16   17 ar
    37   16   19 1
    38   17   18 ar
    39   17   59 1
    40   18   60 1
    41   19   20 1
    42   19   73 1
    43   20   21 2
    44   20   35 1
    45   21   33 1
    46   21   22 1
    47   22   27 ar
    48   22   23 ar
    49   23   24 ar
    50   23   32 1
    51   24   25 ar
    52   24   61 1
    53   25   26 ar
    54   25   28 1
    55   26   27 ar
    56   26   62 1
    57   27   63 1
    58   28   29 2
    59   28   30 1
    60   30   31 1
    61   31   64 1
    62   31   65 1
    63   31   66 1
    64   32   33 am
    65   32   72 1
    66   33   34 2
    67   35   40 ar
    68   35   36 ar
    69   36   37 ar
    70   36   67 1
    71   37   38 ar
    72   37   68 1
    73   38   39 ar
    74   38   69 1
    75   39   40 ar
    76   39   70 1
    77   40   71 1
@<TRIPOS>MOLECULE
6-methoxycarbonyl-3-[(~{E})-~{N}-[4-[methyl-[2-(4-methylpiperazin-4-ium-1-yl)acetyl]amino]phenyl]-~{C}-phenyl-carbonimidoyl]-1~{H}-indol-2-olate
   73    77     0     0     0
SMALL
USER_CHARGES

@<TRIPOS>ATOM
      1 C1          8.1765   -3.4963   -2.1483 C.3       1 <0>         0.0835
      2 N1          6.7219   -3.6079   -2.2364 N.4       1 <0>        -0.6842
      3 C2          6.3190   -4.9999   -2.4715 C.3       1 <0>         0.1076
      4 C3          4.7940   -5.1178   -2.5672 C.3       1 <0>         0.1602
      5 N2          4.2684   -4.2471   -3.6257 N.3       1 <0>        -0.7541
      6 C4          4.6702   -2.8549   -3.3902 C.3       1 <0>         0.1602
      7 C5          6.1951   -2.7361   -3.2936 C.3       1 <0>         0.1076
      8 C6          2.8139   -4.3593   -3.7158 C.3       1 <0>         0.1087
      9 C7          2.3608   -3.8697   -5.0742 C.2       1 <0>         0.6542
     10 O1          3.0977   -3.9812   -6.0574 O.2       1 <0>        -0.6005
     11 N3          1.0500   -3.3429   -5.1030 N.am      1 <0>        -0.3508
     12 C8          0.2297   -3.2415   -3.8859 C.3       1 <0>         0.0735
     13 C9          0.4436   -2.8742   -6.3330 C.ar      1 <0>        -0.0276
     14 C10        -0.4985   -1.8461   -6.2988 C.ar      1 <0>        -0.1213
     15 C11        -1.0819   -1.3951   -7.4828 C.ar      1 <0>        -0.1455
     16 C12        -0.7232   -1.9723   -8.7010 C.ar      1 <0>         0.2043
     17 C13         0.2189   -3.0004   -8.7351 C.ar      1 <0>        -0.1455
     18 C14         0.8023   -3.4514   -7.5511 C.ar      1 <0>        -0.1213
     19 N4         -1.3131   -1.5164   -9.8982 N.2       1 <0>        -0.6467
     20 C15        -0.8940   -0.5327  -10.7238 C.2       1 <0>         0.6887
     21 C16        -1.5261   -0.1593  -11.8591 C.2       1 <0>        -0.4771
     22 C17        -1.1416    0.8779  -12.7936 C.ar      1 <0>         0.0809
     23 C18        -2.1225    0.8573  -13.7895 C.ar      1 <0>         0.0546
     24 C19        -2.0970    1.7166  -14.8703 C.ar      1 <0>        -0.0957
     25 C20        -1.0397    2.6258  -14.9398 C.ar      1 <0>        -0.2075
     26 C21        -0.0468    2.6548  -13.9423 C.ar      1 <0>        -0.0661
     27 C22        -0.0920    1.7748  -12.8555 C.ar      1 <0>        -0.1999
     28 C23        -0.9623    3.5557  -16.0559 C.2       1 <0>         0.6649
     29 O2         -0.4561    4.6837  -15.9931 O.2       1 <0>        -0.5839
     30 O3         -1.5188    3.0285  -17.1890 O.3       1 <0>        -0.4488
     31 C24        -1.5023    3.8512  -18.3606 C.3       1 <0>         0.1319
     32 N5         -3.0788   -0.1276  -13.5179 N.pl3     1 <0>        -0.7012
     33 C25        -2.7830   -0.8086  -12.3327 C.2       1 <0>         0.6370
     34 O4         -3.3922   -1.7165  -11.7979 O.3       1 <0>        -0.6363
     35 C26         0.3602    0.1746  -10.3605 C.ar      1 <0>        -0.1617
     36 C27         0.3112    1.3120   -9.5545 C.ar      1 <0>        -0.0993
     37 C28         1.4892    1.9763   -9.2132 C.ar      1 <0>        -0.1433
     38 C29         2.7164    1.5033   -9.6780 C.ar      1 <0>        -0.1430
     39 C30         2.7654    0.3659  -10.4840 C.ar      1 <0>        -0.1433
     40 C31         1.5873   -0.2984  -10.8253 C.ar      1 <0>        -0.0993
     41 H1          8.5473   -4.1572   -1.3510 H         1 <0>         0.1025
     42 H2          8.4512   -2.4560   -1.9196 H         1 <0>         0.1025
     43 H3          8.6257   -3.7917   -3.1080 H         1 <0>         0.1025
     44 H4          6.7614   -5.3555   -3.4137 H         1 <0>         0.1100
     45 H5          6.6713   -5.6289   -1.6407 H         1 <0>         0.1100
     46 H6          4.5203   -6.1584   -2.7960 H         1 <0>         0.0796
     47 H7          4.3425   -4.8223   -1.6087 H         1 <0>         0.0796
     48 H8          4.3180   -2.2261   -4.2212 H         1 <0>         0.0796
     49 H9          4.2270   -2.4997   -2.4482 H         1 <0>         0.0796
     50 H10         6.4551   -1.6908   -3.0704 H         1 <0>         0.1100
     51 H11         6.6344   -3.0249   -4.2598 H         1 <0>         0.1100
     52 H12         2.5185   -5.4107   -3.5847 H         1 <0>         0.0651
     53 H13         2.3494   -3.7471   -2.9287 H         1 <0>         0.0651
     54 H14        -0.7483   -2.8058   -4.1382 H         1 <0>         0.0452
     55 H15         0.7393   -2.5990   -3.1528 H         1 <0>         0.0452
     56 H16         0.0849   -4.2439   -3.4568 H         1 <0>         0.0452
     57 H17        -0.7855   -1.3893   -5.3550 H         1 <0>         0.1290
     58 H18        -1.8150   -0.5936   -7.4449 H         1 <0>         0.1469
     59 H19         0.5058   -3.4571   -9.6789 H         1 <0>         0.1469
     60 H20         1.5354   -4.2531   -7.5900 H         1 <0>         0.1290
     61 H21        -2.8680    1.6840  -15.6326 H         1 <0>         0.1298
     62 H22         0.7722    3.3679  -14.0085 H         1 <0>         0.1219
     63 H23         0.6778    1.8058  -12.0925 H         1 <0>         0.1236
     64 H24        -1.9770    3.3122  -19.1938 H         1 <0>         0.0372
     65 H25        -0.4620    4.0920  -18.6249 H         1 <0>         0.0372
     66 H26        -2.0552    4.7814  -18.1632 H         1 <0>         0.0372
     67 H27        -0.6377    1.6929   -9.1844 H         1 <0>         0.1470
     68 H28         1.4512    2.8620   -8.5858 H         1 <0>         0.1180
     69 H29         3.6337    2.0205   -9.4124 H         1 <0>         0.1138
     70 H30         3.7210   -0.0024  -10.8458 H         1 <0>         0.1180
     71 H31         1.6418   -1.1836  -11.4545 H         1 <0>         0.1470
     72 H32        -3.9242   -0.2778  -14.2055 H         1 <0>         0.4323
     73 H33         6.3022   -3.2812   -1.2735 H         1 <0>         0.4399
@<TRIPOS>BOND
     1    1    2 1
     2    1   41 1
     3    1   42 1
     4    1   43 1
     5    2    7 1
     6    2    3 1
     7    2   73 1
     8    3    4 1
     9    3   44 1
    10    3   45 1
    11    4    5 1
    12    4   46 1
    13    4   47 1
    14    5    6 1
    15    5    8 1
    16    6    7 1
    17    6   48 1
    18    6   49 1
    19    7   50 1
    20    7   51 1
    21    8    9 1
    22    8   52 1
    23    8   53 1
    24    9   10 2
    25    9   11 am
    26   11   12 1
    27   11   13 1
    28   12   54 1
    29   12   55 1
    30   12   56 1
    31   13   18 ar
    32   13   14 ar
    33   14   15 ar
    34   14   57 1
    35   15   16 ar
    36   15   58 1
    37   16   17 ar
    38   16   19 1
    39   17   18 ar
    40   17   59 1
    41   18   60 1
    42   19   20 2
    43   20   21 1
    44   20   35 1
    45   21   33 2
    46   21   22 1
    47   22   27 ar
    48   22   23 ar
    49   23   24 ar
    50   23   32 1
    51   24   25 ar
    52   24   61 1
    53   25   26 ar
    54   25   28 1
    55   26   27 ar
    56   26   62 1
    57   27   63 1
    58   28   29 2
    59   28   30 1
    60   30   31 1
    61   31   64 1
    62   31   65 1
    63   31   66 1
    64   32   33 1
    65   32   72 1
    66   33   34 1
    67   35   40 ar
    68   35   36 ar
    69   36   37 ar
    70   36   67 1
    71   37   38 ar
    72   37   68 1
    73   38   39 ar
    74   38   69 1
    75   39   40 ar
    76   39   70 1
    77   40   71 1
@<TRIPOS>MOLECULE
6-methoxycarbonyl-3-[(~{E})-~{N}-[4-[methyl-[2-(4-methylpiperazin-1-ium-1-yl)acetyl]amino]phenyl]-~{C}-phenyl-carbonimidoyl]-1~{H}-indol-2-olate
   73    77     0     0     0
SMALL
USER_CHARGES

@<TRIPOS>ATOM
      1 C1          8.1765   -3.4963   -2.1483 C.3       1 <0>         0.1398
      2 N1          6.7219   -3.6079   -2.2364 N.3       1 <0>        -0.7198
      3 C2          6.3190   -4.9999   -2.4715 C.3       1 <0>         0.1319
      4 C3          4.7940   -5.1178   -2.5672 C.3       1 <0>         0.1096
      5 N2          4.2684   -4.2471   -3.6257 N.4       1 <0>        -0.6736
      6 C4          4.6702   -2.8549   -3.3902 C.3       1 <0>         0.1096
      7 C5          6.1951   -2.7361   -3.2936 C.3       1 <0>         0.1319
      8 C6          2.8139   -4.3593   -3.7158 C.3       1 <0>         0.0148
      9 C7          2.3608   -3.8697   -5.0742 C.2       1 <0>         0.6339
     10 O1          3.0977   -3.9812   -6.0574 O.2       1 <0>        -0.6258
     11 N3          1.0500   -3.3429   -5.1030 N.am      1 <0>        -0.3020
     12 C8          0.2297   -3.2415   -3.8859 C.3       1 <0>         0.0633
     13 C9          0.4436   -2.8742   -6.3330 C.ar      1 <0>        -0.0653
     14 C10        -0.4985   -1.8461   -6.2988 C.ar      1 <0>        -0.1073
     15 C11        -1.0819   -1.3951   -7.4828 C.ar      1 <0>        -0.1522
     16 C12        -0.7232   -1.9723   -8.7010 C.ar      1 <0>         0.2355
     17 C13         0.2189   -3.0004   -8.7351 C.ar      1 <0>        -0.1522
     18 C14         0.8023   -3.4514   -7.5511 C.ar      1 <0>        -0.1073
     19 N4         -1.3131   -1.5164   -9.8982 N.2       1 <0>        -0.6668
     20 C15        -0.8940   -0.5327  -10.7238 C.2       1 <0>         0.7024
     21 C16        -1.5261   -0.1593  -11.8591 C.2       1 <0>        -0.4799
     22 C17        -1.1416    0.8779  -12.7936 C.ar      1 <0>         0.0771
     23 C18        -2.1225    0.8573  -13.7895 C.ar      1 <0>         0.0610
     24 C19        -2.0970    1.7166  -14.8703 C.ar      1 <0>        -0.0959
     25 C20        -1.0397    2.6258  -14.9398 C.ar      1 <0>        -0.1994
     26 C21        -0.0468    2.6548  -13.9423 C.ar      1 <0>        -0.0696
     27 C22        -0.0920    1.7748  -12.8555 C.ar      1 <0>        -0.1938
     28 C23        -0.9623    3.5557  -16.0559 C.2       1 <0>         0.6630
     29 O2         -0.4561    4.6837  -15.9931 O.2       1 <0>        -0.5826
     30 O3         -1.5188    3.0285  -17.1890 O.3       1 <0>        -0.4464
     31 C24        -1.5023    3.8512  -18.3606 C.3       1 <0>         0.1299
     32 N5         -3.0788   -0.1276  -13.5179 N.pl3     1 <0>        -0.7007
     33 C25        -2.7830   -0.8086  -12.3327 C.2       1 <0>         0.6373
     34 O4         -3.3922   -1.7165  -11.7979 O.3       1 <0>        -0.6345
     35 C26         0.3602    0.1746  -10.3605 C.ar      1 <0>        -0.1656
     36 C27         0.3112    1.3120   -9.5545 C.ar      1 <0>        -0.0993
     37 C28         1.4892    1.9763   -9.2132 C.ar      1 <0>        -0.1438
     38 C29         2.7164    1.5033   -9.6780 C.ar      1 <0>        -0.1423
     39 C30         2.7654    0.3659  -10.4840 C.ar      1 <0>        -0.1438
     40 C31         1.5873   -0.2984  -10.8253 C.ar      1 <0>        -0.0993
     41 H1          8.5473   -4.1572   -1.3510 H         1 <0>         0.0545
     42 H2          8.4512   -2.4560   -1.9196 H         1 <0>         0.0545
     43 H3          8.6257   -3.7917   -3.1080 H         1 <0>         0.0545
     44 H4          6.7614   -5.3555   -3.4137 H         1 <0>         0.0758
     45 H5          6.6713   -5.6289   -1.6407 H         1 <0>         0.0758
     46 H6          4.5203   -6.1584   -2.7960 H         1 <0>         0.1115
     47 H7          4.3425   -4.8223   -1.6087 H         1 <0>         0.1115
     48 H8          4.3180   -2.2261   -4.2212 H         1 <0>         0.1115
     49 H9          4.2270   -2.4997   -2.4482 H         1 <0>         0.1115
     50 H10         6.4551   -1.6908   -3.0704 H         1 <0>         0.0758
     51 H11         6.6344   -3.0249   -4.2598 H         1 <0>         0.0758
     52 H12         2.5185   -5.4107   -3.5847 H         1 <0>         0.1129
     53 H13         2.3494   -3.7471   -2.9287 H         1 <0>         0.1129
     54 H14        -0.7483   -2.8058   -4.1382 H         1 <0>         0.0562
     55 H15         0.7393   -2.5990   -3.1528 H         1 <0>         0.0562
     56 H16         0.0849   -4.2439   -3.4568 H         1 <0>         0.0562
     57 H17        -0.7855   -1.3893   -5.3550 H         1 <0>         0.1288
     58 H18        -1.8150   -0.5936   -7.4449 H         1 <0>         0.1532
     59 H19         0.5058   -3.4571   -9.6789 H         1 <0>         0.1532
     60 H20         1.5354   -4.2531   -7.5900 H         1 <0>         0.1288
     61 H21        -2.8680    1.6840  -15.6326 H         1 <0>         0.1336
     62 H22         0.7722    3.3679  -14.0085 H         1 <0>         0.1252
     63 H23         0.6778    1.8058  -12.0925 H         1 <0>         0.1251
     64 H24        -1.9770    3.3122  -19.1938 H         1 <0>         0.0392
     65 H25        -0.4620    4.0920  -18.6249 H         1 <0>         0.0392
     66 H26        -2.0552    4.7814  -18.1632 H         1 <0>         0.0392
     67 H27        -0.6377    1.6929   -9.1844 H         1 <0>         0.1492
     68 H28         1.4512    2.8620   -8.5858 H         1 <0>         0.1201
     69 H29         3.6337    2.0205   -9.4124 H         1 <0>         0.1146
     70 H30         3.7210   -0.0024  -10.8458 H         1 <0>         0.1201
     71 H31         1.6418   -1.1836  -11.4545 H         1 <0>         0.1492
     72 H32        -3.9242   -0.2778  -14.2055 H         1 <0>         0.4344
     73 H33         4.6896   -4.5742   -4.5878 H         1 <0>         0.4684
@<TRIPOS>BOND
     1    1    2 1
     2    1   41 1
     3    1   42 1
     4    1   43 1
     5    2    7 1
     6    2    3 1
     7    3    4 1
     8    3   44 1
     9    3   45 1
    10    4    5 1
    11    4   46 1
    12    4   47 1
    13    5    6 1
    14    5    8 1
    15    5   73 1
    16    6    7 1
    17    6   48 1
    18    6   49 1
    19    7   50 1
    20    7   51 1
    21    8    9 1
    22    8   52 1
    23    8   53 1
    24    9   10 2
    25    9   11 am
    26   11   12 1
    27   11   13 1
    28   12   54 1
    29   12   55 1
    30   12   56 1
    31   13   18 ar
    32   13   14 ar
    33   14   15 ar
    34   14   57 1
    35   15   16 ar
    36   15   58 1
    37   16   17 ar
    38   16   19 1
    39   17   18 ar
    40   17   59 1
    41   18   60 1
    42   19   20 2
    43   20   21 1
    44   20   35 1
    45   21   33 2
    46   21   22 1
    47   22   27 ar
    48   22   23 ar
    49   23   24 ar
    50   23   32 1
    51   24   25 ar
    52   24   61 1
    53   25   26 ar
    54   25   28 1
    55   26   27 ar
    56   26   62 1
    57   27   63 1
    58   28   29 2
    59   28   30 1
    60   30   31 1
    61   31   64 1
    62   31   65 1
    63   31   66 1
    64   32   33 1
    65   32   72 1
    66   33   34 1
    67   35   40 ar
    68   35   36 ar
    69   36   37 ar
    70   36   67 1
    71   37   38 ar
    72   37   68 1
    73   38   39 ar
    74   38   69 1
    75   39   40 ar
    76   39   70 1
    77   40   71 1
@<TRIPOS>MOLECULE
6-methoxycarbonyl-3-[(~{E})-~{N}-[4-[methyl-[2-(4-methylpiperazin-1-yl)acetyl]amino]phenyl]-~{C}-phenyl-carbonimidoyl]-1~{H}-indol-2-olate
   72    76     0     0     0
SMALL
USER_CHARGES

@<TRIPOS>ATOM
      1 C1          8.1765   -3.4963   -2.1483 C.3       1 <0>         0.1515
      2 N1          6.7219   -3.6079   -2.2364 N.3       1 <0>        -0.7236
      3 C2          6.3190   -4.9999   -2.4715 C.3       1 <0>         0.1624
      4 C3          4.7940   -5.1178   -2.5672 C.3       1 <0>         0.1777
      5 N2          4.2684   -4.2471   -3.6257 N.3       1 <0>        -0.7309
      6 C4          4.6702   -2.8549   -3.3902 C.3       1 <0>         0.1777
      7 C5          6.1951   -2.7361   -3.2936 C.3       1 <0>         0.1624
      8 C6          2.8139   -4.3593   -3.7158 C.3       1 <0>         0.1138
      9 C7          2.3608   -3.8697   -5.0742 C.2       1 <0>         0.6574
     10 O1          3.0977   -3.9812   -6.0574 O.2       1 <0>        -0.5707
     11 N3          1.0500   -3.3429   -5.1030 N.am      1 <0>        -0.4008
     12 C8          0.2297   -3.2415   -3.8859 C.3       1 <0>         0.0908
     13 C9          0.4436   -2.8742   -6.3330 C.ar      1 <0>         0.0022
     14 C10        -0.4985   -1.8461   -6.2988 C.ar      1 <0>        -0.1144
     15 C11        -1.0819   -1.3951   -7.4828 C.ar      1 <0>        -0.1439
     16 C12        -0.7232   -1.9723   -8.7010 C.ar      1 <0>         0.1703
     17 C13         0.2189   -3.0004   -8.7351 C.ar      1 <0>        -0.1439
     18 C14         0.8023   -3.4514   -7.5511 C.ar      1 <0>        -0.1144
     19 N4         -1.3131   -1.5164   -9.8982 N.2       1 <0>        -0.5902
     20 C15        -0.8940   -0.5327  -10.7238 C.2       1 <0>         0.6710
     21 C16        -1.5261   -0.1593  -11.8591 C.2       1 <0>        -0.4761
     22 C17        -1.1416    0.8779  -12.7936 C.ar      1 <0>         0.0857
     23 C18        -2.1225    0.8573  -13.7895 C.ar      1 <0>         0.0483
     24 C19        -2.0970    1.7166  -14.8703 C.ar      1 <0>        -0.0910
     25 C20        -1.0397    2.6258  -14.9398 C.ar      1 <0>        -0.2309
     26 C21        -0.0468    2.6548  -13.9423 C.ar      1 <0>        -0.0558
     27 C22        -0.0920    1.7748  -12.8555 C.ar      1 <0>        -0.2205
     28 C23        -0.9623    3.5557  -16.0559 C.2       1 <0>         0.6677
     29 O2         -0.4561    4.6837  -15.9931 O.2       1 <0>        -0.5951
     30 O3         -1.5188    3.0285  -17.1890 O.3       1 <0>        -0.4529
     31 C24        -1.5023    3.8512  -18.3606 C.3       1 <0>         0.1340
     32 N5         -3.0788   -0.1276  -13.5179 N.pl3     1 <0>        -0.7042
     33 C25        -2.7830   -0.8086  -12.3327 C.2       1 <0>         0.6395
     34 O4         -3.3922   -1.7165  -11.7979 O.3       1 <0>        -0.6386
     35 C26         0.3602    0.1746  -10.3605 C.ar      1 <0>        -0.1578
     36 C27         0.3112    1.3120   -9.5545 C.ar      1 <0>        -0.1046
     37 C28         1.4892    1.9763   -9.2132 C.ar      1 <0>        -0.1408
     38 C29         2.7164    1.5033   -9.6780 C.ar      1 <0>        -0.1447
     39 C30         2.7654    0.3659  -10.4840 C.ar      1 <0>        -0.1408
     40 C31         1.5873   -0.2984  -10.8253 C.ar      1 <0>        -0.1046
     41 H1          8.5473   -4.1572   -1.3510 H         1 <0>         0.0292
     42 H2          8.4512   -2.4560   -1.9196 H         1 <0>         0.0292
     43 H3          8.6257   -3.7917   -3.1080 H         1 <0>         0.0292
     44 H4          6.7614   -5.3555   -3.4137 H         1 <0>         0.0386
     45 H5          6.6713   -5.6289   -1.6407 H         1 <0>         0.0386
     46 H6          4.5203   -6.1584   -2.7960 H         1 <0>         0.0399
     47 H7          4.3425   -4.8223   -1.6087 H         1 <0>         0.0399
     48 H8          4.3180   -2.2261   -4.2212 H         1 <0>         0.0399
     49 H9          4.2270   -2.4997   -2.4482 H         1 <0>         0.0399
     50 H10         6.4551   -1.6908   -3.0704 H         1 <0>         0.0386
     51 H11         6.6344   -3.0249   -4.2598 H         1 <0>         0.0386
     52 H12         2.5185   -5.4107   -3.5847 H         1 <0>         0.0490
     53 H13         2.3494   -3.7471   -2.9287 H         1 <0>         0.0490
     54 H14        -0.7483   -2.8058   -4.1382 H         1 <0>         0.0359
     55 H15         0.7393   -2.5990   -3.1528 H         1 <0>         0.0359
     56 H16         0.0849   -4.2439   -3.4568 H         1 <0>         0.0359
     57 H17        -0.7855   -1.3893   -5.3550 H         1 <0>         0.1287
     58 H18        -1.8150   -0.5936   -7.4449 H         1 <0>         0.1427
     59 H19         0.5058   -3.4571   -9.6789 H         1 <0>         0.1427
     60 H20         1.5354   -4.2531   -7.5900 H         1 <0>         0.1287
     61 H21        -2.8680    1.6840  -15.6326 H         1 <0>         0.1269
     62 H22         0.7722    3.3679  -14.0085 H         1 <0>         0.1171
     63 H23         0.6778    1.8058  -12.0925 H         1 <0>         0.1146
     64 H24        -1.9770    3.3122  -19.1938 H         1 <0>         0.0341
     65 H25        -0.4620    4.0920  -18.6249 H         1 <0>         0.0341
     66 H26        -2.0552    4.7814  -18.1632 H         1 <0>         0.0341
     67 H27        -0.6377    1.6929   -9.1844 H         1 <0>         0.1459
     68 H28         1.4512    2.8620   -8.5858 H         1 <0>         0.1176
     69 H29         3.6337    2.0205   -9.4124 H         1 <0>         0.1126
     70 H30         3.7210   -0.0024  -10.8458 H         1 <0>         0.1176
     71 H31         1.6418   -1.1836  -11.4545 H         1 <0>         0.1459
     72 H32        -3.9242   -0.2778  -14.2055 H         1 <0>         0.4280
@<TRIPOS>BOND
     1    1    2 1
     2    1   41 1
     3    1   42 1
     4    1   43 1
     5    2    7 1
     6    2    3 1
     7    3    4 1
     8    3   44 1
     9    3   45 1
    10    4    5 1
    11    4   46 1
    12    4   47 1
    13    5    6 1
    14    5    8 1
    15    6    7 1
    16    6   48 1
    17    6   49 1
    18    7   50 1
    19    7   51 1
    20    8    9 1
    21    8   52 1
    22    8   53 1
    23    9   10 2
    24    9   11 am
    25   11   12 1
    26   11   13 1
    27   12   54 1
    28   12   55 1
    29   12   56 1
    30   13   18 ar
    31   13   14 ar
    32   14   15 ar
    33   14   57 1
    34   15   16 ar
    35   15   58 1
    36   16   17 ar
    37   16   19 1
    38   17   18 ar
    39   17   59 1
    40   18   60 1
    41   19   20 2
    42   20   21 1
    43   20   35 1
    44   21   33 2
    45   21   22 1
    46   22   27 ar
    47   22   23 ar
    48   23   24 ar
    49   23   32 1
    50   24   25 ar
    51   24   61 1
    52   25   26 ar
    53   25   28 1
    54   26   27 ar
    55   26   62 1
    56   27   63 1
    57   28   29 2
    58   28   30 1
    59   30   31 1
    60   31   64 1
    61   31   65 1
    62   31   66 1
    63   32   33 1
    64   32   72 1
    65   33   34 1
    66   35   40 ar
    67   35   36 ar
    68   36   37 ar
    69   36   67 1
    70   37   38 ar
    71   37   68 1
    72   38   39 ar
    73   38   69 1
    74   39   40 ar
    75   39   70 1
    76   40   71 1
@<TRIPOS>MOLECULE
methyl 2-hydroxy-3-[(~{E})-~{N}-[4-[methyl-[2-(4-methylpiperazin-1-yl)acetyl]amino]phenyl]-~{C}-phenyl-carbonimidoyl]-1~{H}-indole-6-carboxylate
   73    77     0     0     0
SMALL
USER_CHARGES

@<TRIPOS>ATOM
      1 C1          8.1765   -3.4963   -2.1483 C.3       1 <0>         0.1503
      2 N1          6.7219   -3.6079   -2.2364 N.3       1 <0>        -0.7223
      3 C2          6.3190   -4.9999   -2.4715 C.3       1 <0>         0.1617
      4 C3          4.7940   -5.1178   -2.5672 C.3       1 <0>         0.1747
      5 N2          4.2684   -4.2471   -3.6257 N.3       1 <0>        -0.7280
      6 C4          4.6702   -2.8549   -3.3902 C.3       1 <0>         0.1747
      7 C5          6.1951   -2.7361   -3.2936 C.3       1 <0>         0.1617
      8 C6          2.8139   -4.3593   -3.7158 C.3       1 <0>         0.1172
      9 C7          2.3608   -3.8697   -5.0742 C.2       1 <0>         0.6568
     10 O1          3.0977   -3.9812   -6.0574 O.2       1 <0>        -0.5660
     11 N3          1.0500   -3.3429   -5.1030 N.am      1 <0>        -0.4083
     12 C8          0.2297   -3.2415   -3.8859 C.3       1 <0>         0.0906
     13 C9          0.4436   -2.8742   -6.3330 C.ar      1 <0>         0.0355
     14 C10        -0.4985   -1.8461   -6.2988 C.ar      1 <0>        -0.1160
     15 C11        -1.0819   -1.3951   -7.4828 C.ar      1 <0>        -0.1297
     16 C12        -0.7232   -1.9723   -8.7010 C.ar      1 <0>         0.1348
     17 C13         0.2189   -3.0004   -8.7351 C.ar      1 <0>        -0.1297
     18 C14         0.8023   -3.4514   -7.5511 C.ar      1 <0>        -0.1160
     19 N4         -1.3131   -1.5164   -9.8982 N.2       1 <0>        -0.5714
     20 C15        -0.8940   -0.5327  -10.7238 C.2       1 <0>         0.5928
     21 C16        -1.5261   -0.1593  -11.8591 C.2       1 <0>        -0.2342
     22 C17        -1.1416    0.8779  -12.7936 C.ar      1 <0>        -0.0078
     23 C18        -2.1225    0.8573  -13.7895 C.ar      1 <0>         0.0539
     24 C19        -2.0970    1.7166  -14.8703 C.ar      1 <0>        -0.0803
     25 C20        -1.0397    2.6258  -14.9398 C.ar      1 <0>        -0.1229
     26 C21        -0.0468    2.6548  -13.9423 C.ar      1 <0>        -0.0960
     27 C22        -0.0920    1.7748  -12.8555 C.ar      1 <0>        -0.0944
     28 C23        -0.9623    3.5557  -16.0559 C.2       1 <0>         0.6475
     29 O2         -0.4561    4.6837  -15.9931 O.2       1 <0>        -0.5471
     30 O3         -1.5188    3.0285  -17.1890 O.3       1 <0>        -0.4362
     31 C24        -1.5023    3.8512  -18.3606 C.3       1 <0>         0.1264
     32 N5         -3.0788   -0.1276  -13.5179 N.pl3     1 <0>        -0.6242
     33 C25        -2.7830   -0.8086  -12.3327 C.2       1 <0>         0.2904
     34 O4         -3.3922   -1.7165  -11.7979 O.3       1 <0>        -0.4519
     35 C26         0.3602    0.1746  -10.3605 C.ar      1 <0>        -0.1792
     36 C27         0.3112    1.3120   -9.5545 C.ar      1 <0>        -0.0963
     37 C28         1.4892    1.9763   -9.2132 C.ar      1 <0>        -0.1351
     38 C29         2.7164    1.5033   -9.6780 C.ar      1 <0>        -0.1226
     39 C30         2.7654    0.3659  -10.4840 C.ar      1 <0>        -0.1351
     40 C31         1.5873   -0.2984  -10.8253 C.ar      1 <0>        -0.0963
     41 H1          8.5473   -4.1572   -1.3510 H         1 <0>         0.0322
     42 H2          8.4512   -2.4560   -1.9196 H         1 <0>         0.0322
     43 H3          8.6257   -3.7917   -3.1080 H         1 <0>         0.0322
     44 H4          6.7614   -5.3555   -3.4137 H         1 <0>         0.0415
     45 H5          6.6713   -5.6289   -1.6407 H         1 <0>         0.0415
     46 H6          4.5203   -6.1584   -2.7960 H         1 <0>         0.0396
     47 H7          4.3425   -4.8223   -1.6087 H         1 <0>         0.0396
     48 H8          4.3180   -2.2261   -4.2212 H         1 <0>         0.0396
     49 H9          4.2270   -2.4997   -2.4482 H         1 <0>         0.0396
     50 H10         6.4551   -1.6908   -3.0704 H         1 <0>         0.0415
     51 H11         6.6344   -3.0249   -4.2598 H         1 <0>         0.0415
     52 H12         2.5185   -5.4107   -3.5847 H         1 <0>         0.0520
     53 H13         2.3494   -3.7471   -2.9287 H         1 <0>         0.0520
     54 H14        -0.7483   -2.8058   -4.1382 H         1 <0>         0.0390
     55 H15         0.7393   -2.5990   -3.1528 H         1 <0>         0.0390
     56 H16         0.0849   -4.2439   -3.4568 H         1 <0>         0.0390
     57 H17        -0.7855   -1.3893   -5.3550 H         1 <0>         0.1408
     58 H18        -1.8150   -0.5936   -7.4449 H         1 <0>         0.1392
     59 H19         0.5058   -3.4571   -9.6789 H         1 <0>         0.1392
     60 H20         1.5354   -4.2531   -7.5900 H         1 <0>         0.1408
     61 H21        -2.8680    1.6840  -15.6326 H         1 <0>         0.1546
     62 H22         0.7722    3.3679  -14.0085 H         1 <0>         0.1527
     63 H23         0.6778    1.8058  -12.0925 H         1 <0>         0.1638
     64 H24        -1.9770    3.3122  -19.1938 H         1 <0>         0.0509
     65 H25        -0.4620    4.0920  -18.6249 H         1 <0>         0.0509
     66 H26        -2.0552    4.7814  -18.1632 H         1 <0>         0.0509
     67 H27        -0.6377    1.6929   -9.1844 H         1 <0>         0.1375
     68 H28         1.4512    2.8620   -8.5858 H         1 <0>         0.1310
     69 H29         3.6337    2.0205   -9.4124 H         1 <0>         0.1294
     70 H30         3.7210   -0.0024  -10.8458 H         1 <0>         0.1310
     71 H31         1.6418   -1.1836  -11.4545 H         1 <0>         0.1375
     72 H32        -3.9242   -0.2778  -14.2055 H         1 <0>         0.4597
     73 H33        -4.3132   -2.1059  -12.2563 H         1 <0>         0.4263
@<TRIPOS>BOND
     1    1    2 1
     2    1   41 1
     3    1   42 1
     4    1   43 1
     5    2    7 1
     6    2    3 1
     7    3    4 1
     8    3   44 1
     9    3   45 1
    10    4    5 1
    11    4   46 1
    12    4   47 1
    13    5    6 1
    14    5    8 1
    15    6    7 1
    16    6   48 1
    17    6   49 1
    18    7   50 1
    19    7   51 1
    20    8    9 1
    21    8   52 1
    22    8   53 1
    23    9   10 2
    24    9   11 am
    25   11   12 1
    26   11   13 1
    27   12   54 1
    28   12   55 1
    29   12   56 1
    30   13   18 ar
    31   13   14 ar
    32   14   15 ar
    33   14   57 1
    34   15   16 ar
    35   15   58 1
    36   16   17 ar
    37   16   19 1
    38   17   18 ar
    39   17   59 1
    40   18   60 1
    41   19   20 2
    42   20   21 1
    43   20   35 1
    44   21   33 2
    45   21   22 1
    46   22   27 ar
    47   22   23 ar
    48   23   24 ar
    49   23   32 1
    50   24   25 ar
    51   24   61 1
    52   25   26 ar
    53   25   28 1
    54   26   27 ar
    55   26   62 1
    56   27   63 1
    57   28   29 2
    58   28   30 1
    59   30   31 1
    60   31   64 1
    61   31   65 1
    62   31   66 1
    63   32   33 1
    64   32   72 1
    65   33   34 1
    66   34   73 1
    67   35   40 ar
    68   35   36 ar
    69   36   37 ar
    70   36   67 1
    71   37   38 ar
    72   37   68 1
    73   38   39 ar
    74   38   69 1
    75   39   40 ar
    76   39   70 1
    77   40   71 1
