methyl (3~{Z})-3-[[4-[methyl-[2-(4-methylpiperazin-1-yl)acetyl]amino]anilino]-phenyl-methylene]-2-oxo-indoline-6-carboxylate
                    3D
 Structure written by MMmdl.
 74 78  0  0  1  0            999 V2000
    8.1765   -3.4963   -2.1483 C   0  0  0  0  0  0
    6.7219   -3.6079   -2.2364 N   0  3  0  0  0  0
    6.3190   -4.9999   -2.4715 C   0  0  0  0  0  0
    4.7940   -5.1178   -2.5672 C   0  0  0  0  0  0
    4.2684   -4.2471   -3.6257 N   0  0  0  0  0  0
    4.6702   -2.8549   -3.3902 C   0  0  0  0  0  0
    6.1951   -2.7361   -3.2936 C   0  0  0  0  0  0
    2.8139   -4.3593   -3.7158 C   0  0  0  0  0  0
    2.3608   -3.8697   -5.0742 C   0  0  0  0  0  0
    3.0977   -3.9812   -6.0574 O   0  0  0  0  0  0
    1.0500   -3.3429   -5.1030 N   0  0  0  0  0  0
    0.2297   -3.2415   -3.8859 C   0  0  0  0  0  0
    0.4436   -2.8742   -6.3330 C   0  0  0  0  0  0
   -0.4985   -1.8461   -6.2988 C   0  0  0  0  0  0
   -1.0819   -1.3951   -7.4828 C   0  0  0  0  0  0
   -0.7232   -1.9723   -8.7010 C   0  0  0  0  0  0
    0.2189   -3.0004   -8.7351 C   0  0  0  0  0  0
    0.8023   -3.4514   -7.5511 C   0  0  0  0  0  0
   -1.3131   -1.5164   -9.8982 N   0  0  0  0  0  0
   -0.8940   -0.5327  -10.7238 C   0  0  0  0  0  0
   -1.5261   -0.1593  -11.8591 C   0  0  0  0  0  0
   -1.1416    0.8779  -12.7936 C   0  0  0  0  0  0
   -2.1225    0.8573  -13.7895 C   0  0  0  0  0  0
   -2.0970    1.7166  -14.8703 C   0  0  0  0  0  0
   -1.0397    2.6258  -14.9398 C   0  0  0  0  0  0
   -0.0468    2.6548  -13.9423 C   0  0  0  0  0  0
   -0.0920    1.7748  -12.8555 C   0  0  0  0  0  0
   -0.9623    3.5557  -16.0559 C   0  0  0  0  0  0
   -0.4561    4.6837  -15.9931 O   0  0  0  0  0  0
   -1.5188    3.0285  -17.1890 O   0  0  0  0  0  0
   -1.5023    3.8512  -18.3606 C   0  0  0  0  0  0
   -3.0788   -0.1276  -13.5179 N   0  0  0  0  0  0
   -2.7830   -0.8086  -12.3327 C   0  0  0  0  0  0
   -3.3922   -1.7165  -11.7979 O   0  0  0  0  0  0
    0.3602    0.1746  -10.3605 C   0  0  0  0  0  0
    0.3112    1.3120   -9.5545 C   0  0  0  0  0  0
    1.4892    1.9763   -9.2132 C   0  0  0  0  0  0
    2.7164    1.5033   -9.6780 C   0  0  0  0  0  0
    2.7654    0.3659  -10.4840 C   0  0  0  0  0  0
    1.5873   -0.2984  -10.8253 C   0  0  0  0  0  0
    8.5473   -4.1572   -1.3510 H   0  0  0  0  0  0
    8.4512   -2.4560   -1.9196 H   0  0  0  0  0  0
    8.6257   -3.7917   -3.1080 H   0  0  0  0  0  0
    6.7614   -5.3555   -3.4137 H   0  0  0  0  0  0
    6.6713   -5.6289   -1.6407 H   0  0  0  0  0  0
    4.5203   -6.1584   -2.7960 H   0  0  0  0  0  0
    4.3425   -4.8223   -1.6087 H   0  0  0  0  0  0
    4.3180   -2.2261   -4.2212 H   0  0  0  0  0  0
    4.2270   -2.4997   -2.4482 H   0  0  0  0  0  0
    6.4551   -1.6908   -3.0704 H   0  0  0  0  0  0
    6.6344   -3.0249   -4.2598 H   0  0  0  0  0  0
    2.5185   -5.4107   -3.5847 H   0  0  0  0  0  0
    2.3494   -3.7471   -2.9287 H   0  0  0  0  0  0
   -0.7483   -2.8058   -4.1382 H   0  0  0  0  0  0
    0.7393   -2.5990   -3.1528 H   0  0  0  0  0  0
    0.0849   -4.2439   -3.4568 H   0  0  0  0  0  0
   -0.7855   -1.3893   -5.3550 H   0  0  0  0  0  0
   -1.8150   -0.5936   -7.4449 H   0  0  0  0  0  0
    0.5058   -3.4571   -9.6789 H   0  0  0  0  0  0
    1.5354   -4.2531   -7.5900 H   0  0  0  0  0  0
   -2.2400   -1.9805  -10.2661 H   0  0  0  0  0  0
   -2.8680    1.6840  -15.6326 H   0  0  0  0  0  0
    0.7722    3.3679  -14.0085 H   0  0  0  0  0  0
    0.6778    1.8058  -12.0925 H   0  0  0  0  0  0
   -1.9770    3.3122  -19.1938 H   0  0  0  0  0  0
   -0.4620    4.0920  -18.6249 H   0  0  0  0  0  0
   -2.0552    4.7814  -18.1632 H   0  0  0  0  0  0
   -3.9242   -0.2778  -14.2055 H   0  0  0  0  0  0
   -0.6377    1.6929   -9.1844 H   0  0  0  0  0  0
    1.4512    2.8620   -8.5858 H   0  0  0  0  0  0
    3.6337    2.0205   -9.4124 H   0  0  0  0  0  0
    3.7210   -0.0024  -10.8458 H   0  0  0  0  0  0
    1.6418   -1.1836  -11.4545 H   0  0  0  0  0  0
    6.3022   -3.2812   -1.2735 H   0  0  0  0  0  0
  1  2  1  0  0  0
  1 41  1  0  0  0
  1 42  1  0  0  0
  1 43  1  0  0  0
  2  7  1  0  0  0
  2  3  1  0  0  0
  2 74  1  0  0  0
  3  4  1  0  0  0
  3 44  1  0  0  0
  3 45  1  0  0  0
  4  5  1  0  0  0
  4 46  1  0  0  0
  4 47  1  0  0  0
  5  6  1  0  0  0
  5  8  1  0  0  0
  6  7  1  0  0  0
  6 48  1  0  0  0
  6 49  1  0  0  0
  7 50  1  0  0  0
  7 51  1  0  0  0
  8  9  1  0  0  0
  8 52  1  0  0  0
  8 53  1  0  0  0
  9 10  2  0  0  0
  9 11  1  0  0  0
 11 12  1  0  0  0
 11 13  1  0  0  0
 12 54  1  0  0  0
 12 55  1  0  0  0
 12 56  1  0  0  0
 13 18  2  0  0  0
 13 14  1  0  0  0
 14 15  2  0  0  0
 14 57  1  0  0  0
 15 16  1  0  0  0
 15 58  1  0  0  0
 16 17  2  0  0  0
 16 19  1  0  0  0
 17 18  1  0  0  0
 17 59  1  0  0  0
 18 60  1  0  0  0
 19 20  1  0  0  0
 19 61  1  0  0  0
 20 21  2  0  0  0
 20 35  1  0  0  0
 21 33  1  0  0  0
 21 22  1  0  0  0
 22 27  2  0  0  0
 22 23  1  0  0  0
 23 24  2  0  0  0
 23 32  1  0  0  0
 24 25  1  0  0  0
 24 62  1  0  0  0
 25 26  2  0  0  0
 25 28  1  0  0  0
 26 27  1  0  0  0
 26 63  1  0  0  0
 27 64  1  0  0  0
 28 29  2  0  0  0
 28 30  1  0  0  0
 30 31  1  0  0  0
 31 65  1  0  0  0
 31 66  1  0  0  0
 31 67  1  0  0  0
 32 33  1  0  0  0
 32 68  1  0  0  0
 33 34  2  0  0  0
 35 40  2  0  0  0
 35 36  1  0  0  0
 36 37  2  0  0  0
 36 69  1  0  0  0
 37 38  1  0  0  0
 37 70  1  0  0  0
 38 39  2  0  0  0
 38 71  1  0  0  0
 39 40  1  0  0  0
 39 72  1  0  0  0
 40 73  1  0  0  0
M  CHG  1   2   1
M  END
> <s_m_source_file>
/Users/choderaj/github/choderalab/mcce-charges/mcce-charges.jchodera/epik_inhibitors/output/Nintedanib/Nintedanib-input.mol2

> <i_m_source_file_index>
1

> <r_lp_tautomer_probability>
0.499999999999422

> <r_epik_Ionization_Penalty>
  0.0663

> <r_epik_Ionization_Penalty_Charging>
  0.0648

> <r_epik_Ionization_Penalty_Neutral>
  0.0015

> <r_epik_State_Penalty>
  0.0310

> <i_epik_Tot_Q>
1

> <s_epik_Chemistry_Notes>
This compound has an ester and may undergo hydrolysis at high or low pH.

$$$$
methyl (3~{Z})-3-[[4-[methyl-[2-(4-methylpiperazin-1-yl)acetyl]amino]anilino]-phenyl-methylene]-2-oxo-indoline-6-carboxylate
                    3D
 Structure written by MMmdl.
 73 77  0  0  1  0            999 V2000
    8.1765   -3.4963   -2.1483 C   0  0  0  0  0  0
    6.7219   -3.6079   -2.2364 N   0  0  0  0  0  0
    6.3190   -4.9999   -2.4715 C   0  0  0  0  0  0
    4.7940   -5.1178   -2.5672 C   0  0  0  0  0  0
    4.2684   -4.2471   -3.6257 N   0  0  0  0  0  0
    4.6702   -2.8549   -3.3902 C   0  0  0  0  0  0
    6.1951   -2.7361   -3.2936 C   0  0  0  0  0  0
    2.8139   -4.3593   -3.7158 C   0  0  0  0  0  0
    2.3608   -3.8697   -5.0742 C   0  0  0  0  0  0
    3.0977   -3.9812   -6.0574 O   0  0  0  0  0  0
    1.0500   -3.3429   -5.1030 N   0  0  0  0  0  0
    0.2297   -3.2415   -3.8859 C   0  0  0  0  0  0
    0.4436   -2.8742   -6.3330 C   0  0  0  0  0  0
   -0.4985   -1.8461   -6.2988 C   0  0  0  0  0  0
   -1.0819   -1.3951   -7.4828 C   0  0  0  0  0  0
   -0.7232   -1.9723   -8.7010 C   0  0  0  0  0  0
    0.2189   -3.0004   -8.7351 C   0  0  0  0  0  0
    0.8023   -3.4514   -7.5511 C   0  0  0  0  0  0
   -1.3131   -1.5164   -9.8982 N   0  0  0  0  0  0
   -0.8940   -0.5327  -10.7238 C   0  0  0  0  0  0
   -1.5261   -0.1593  -11.8591 C   0  0  0  0  0  0
   -1.1416    0.8779  -12.7936 C   0  0  0  0  0  0
   -2.1225    0.8573  -13.7895 C   0  0  0  0  0  0
   -2.0970    1.7166  -14.8703 C   0  0  0  0  0  0
   -1.0397    2.6258  -14.9398 C   0  0  0  0  0  0
   -0.0468    2.6548  -13.9423 C   0  0  0  0  0  0
   -0.0920    1.7748  -12.8555 C   0  0  0  0  0  0
   -0.9623    3.5557  -16.0559 C   0  0  0  0  0  0
   -0.4561    4.6837  -15.9931 O   0  0  0  0  0  0
   -1.5188    3.0285  -17.1890 O   0  0  0  0  0  0
   -1.5023    3.8512  -18.3606 C   0  0  0  0  0  0
   -3.0788   -0.1276  -13.5179 N   0  0  0  0  0  0
   -2.7830   -0.8086  -12.3327 C   0  0  0  0  0  0
   -3.3922   -1.7165  -11.7979 O   0  0  0  0  0  0
    0.3602    0.1746  -10.3605 C   0  0  0  0  0  0
    0.3112    1.3120   -9.5545 C   0  0  0  0  0  0
    1.4892    1.9763   -9.2132 C   0  0  0  0  0  0
    2.7164    1.5033   -9.6780 C   0  0  0  0  0  0
    2.7654    0.3659  -10.4840 C   0  0  0  0  0  0
    1.5873   -0.2984  -10.8253 C   0  0  0  0  0  0
    8.5473   -4.1572   -1.3510 H   0  0  0  0  0  0
    8.4512   -2.4560   -1.9196 H   0  0  0  0  0  0
    8.6257   -3.7917   -3.1080 H   0  0  0  0  0  0
    6.7614   -5.3555   -3.4137 H   0  0  0  0  0  0
    6.6713   -5.6289   -1.6407 H   0  0  0  0  0  0
    4.5203   -6.1584   -2.7960 H   0  0  0  0  0  0
    4.3425   -4.8223   -1.6087 H   0  0  0  0  0  0
    4.3180   -2.2261   -4.2212 H   0  0  0  0  0  0
    4.2270   -2.4997   -2.4482 H   0  0  0  0  0  0
    6.4551   -1.6908   -3.0704 H   0  0  0  0  0  0
    6.6344   -3.0249   -4.2598 H   0  0  0  0  0  0
    2.5185   -5.4107   -3.5847 H   0  0  0  0  0  0
    2.3494   -3.7471   -2.9287 H   0  0  0  0  0  0
   -0.7483   -2.8058   -4.1382 H   0  0  0  0  0  0
    0.7393   -2.5990   -3.1528 H   0  0  0  0  0  0
    0.0849   -4.2439   -3.4568 H   0  0  0  0  0  0
   -0.7855   -1.3893   -5.3550 H   0  0  0  0  0  0
   -1.8150   -0.5936   -7.4449 H   0  0  0  0  0  0
    0.5058   -3.4571   -9.6789 H   0  0  0  0  0  0
    1.5354   -4.2531   -7.5900 H   0  0  0  0  0  0
   -2.2400   -1.9805  -10.2661 H   0  0  0  0  0  0
   -2.8680    1.6840  -15.6326 H   0  0  0  0  0  0
    0.7722    3.3679  -14.0085 H   0  0  0  0  0  0
    0.6778    1.8058  -12.0925 H   0  0  0  0  0  0
   -1.9770    3.3122  -19.1938 H   0  0  0  0  0  0
   -0.4620    4.0920  -18.6249 H   0  0  0  0  0  0
   -2.0552    4.7814  -18.1632 H   0  0  0  0  0  0
   -3.9242   -0.2778  -14.2055 H   0  0  0  0  0  0
   -0.6377    1.6929   -9.1844 H   0  0  0  0  0  0
    1.4512    2.8620   -8.5858 H   0  0  0  0  0  0
    3.6337    2.0205   -9.4124 H   0  0  0  0  0  0
    3.7210   -0.0024  -10.8458 H   0  0  0  0  0  0
    1.6418   -1.1836  -11.4545 H   0  0  0  0  0  0
  1  2  1  0  0  0
  1 41  1  0  0  0
  1 42  1  0  0  0
  1 43  1  0  0  0
  2  7  1  0  0  0
  2  3  1  0  0  0
  3  4  1  0  0  0
  3 44  1  0  0  0
  3 45  1  0  0  0
  4  5  1  0  0  0
  4 46  1  0  0  0
  4 47  1  0  0  0
  5  6  1  0  0  0
  5  8  1  0  0  0
  6  7  1  0  0  0
  6 48  1  0  0  0
  6 49  1  0  0  0
  7 50  1  0  0  0
  7 51  1  0  0  0
  8  9  1  0  0  0
  8 52  1  0  0  0
  8 53  1  0  0  0
  9 10  2  0  0  0
  9 11  1  0  0  0
 11 12  1  0  0  0
 11 13  1  0  0  0
 12 54  1  0  0  0
 12 55  1  0  0  0
 12 56  1  0  0  0
 13 18  2  0  0  0
 13 14  1  0  0  0
 14 15  2  0  0  0
 14 57  1  0  0  0
 15 16  1  0  0  0
 15 58  1  0  0  0
 16 17  2  0  0  0
 16 19  1  0  0  0
 17 18  1  0  0  0
 17 59  1  0  0  0
 18 60  1  0  0  0
 19 20  1  0  0  0
 19 61  1  0  0  0
 20 21  2  0  0  0
 20 35  1  0  0  0
 21 33  1  0  0  0
 21 22  1  0  0  0
 22 27  2  0  0  0
 22 23  1  0  0  0
 23 24  2  0  0  0
 23 32  1  0  0  0
 24 25  1  0  0  0
 24 62  1  0  0  0
 25 26  2  0  0  0
 25 28  1  0  0  0
 26 27  1  0  0  0
 26 63  1  0  0  0
 27 64  1  0  0  0
 28 29  2  0  0  0
 28 30  1  0  0  0
 30 31  1  0  0  0
 31 65  1  0  0  0
 31 66  1  0  0  0
 31 67  1  0  0  0
 32 33  1  0  0  0
 32 68  1  0  0  0
 33 34  2  0  0  0
 35 40  2  0  0  0
 35 36  1  0  0  0
 36 37  2  0  0  0
 36 69  1  0  0  0
 37 38  1  0  0  0
 37 70  1  0  0  0
 38 39  2  0  0  0
 38 71  1  0  0  0
 39 40  1  0  0  0
 39 72  1  0  0  0
 40 73  1  0  0  0
M  END
> <s_m_source_file>
/Users/choderaj/github/choderalab/mcce-charges/mcce-charges.jchodera/epik_inhibitors/output/Nintedanib/Nintedanib-input.mol2

> <i_m_source_file_index>
1

> <r_lp_tautomer_probability>
0.499999999999422

> <r_epik_Ionization_Penalty>
  2.4742

> <r_epik_Ionization_Penalty_Charging>
  0.0000

> <r_epik_Ionization_Penalty_Neutral>
  2.4742

> <r_epik_State_Penalty>
  1.7973

> <i_epik_Tot_Q>
0

> <s_epik_Chemistry_Notes>
This compound has an ester and may undergo hydrolysis at high or low pH.

$$$$
methyl (3~{Z})-3-[[4-[methyl-[2-(4-methylpiperazin-1-yl)acetyl]amino]anilino]-phenyl-methylene]-2-oxo-indoline-6-carboxylate
                    3D
 Structure written by MMmdl.
 74 78  0  0  1  0            999 V2000
    8.1765   -3.4963   -2.1483 C   0  0  0  0  0  0
    6.7219   -3.6079   -2.2364 N   0  0  0  0  0  0
    6.3190   -4.9999   -2.4715 C   0  0  0  0  0  0
    4.7940   -5.1178   -2.5672 C   0  0  0  0  0  0
    4.2684   -4.2471   -3.6257 N   0  3  0  0  0  0
    4.6702   -2.8549   -3.3902 C   0  0  0  0  0  0
    6.1951   -2.7361   -3.2936 C   0  0  0  0  0  0
    2.8139   -4.3593   -3.7158 C   0  0  0  0  0  0
    2.3608   -3.8697   -5.0742 C   0  0  0  0  0  0
    3.0977   -3.9812   -6.0574 O   0  0  0  0  0  0
    1.0500   -3.3429   -5.1030 N   0  0  0  0  0  0
    0.2297   -3.2415   -3.8859 C   0  0  0  0  0  0
    0.4436   -2.8742   -6.3330 C   0  0  0  0  0  0
   -0.4985   -1.8461   -6.2988 C   0  0  0  0  0  0
   -1.0819   -1.3951   -7.4828 C   0  0  0  0  0  0
   -0.7232   -1.9723   -8.7010 C   0  0  0  0  0  0
    0.2189   -3.0004   -8.7351 C   0  0  0  0  0  0
    0.8023   -3.4514   -7.5511 C   0  0  0  0  0  0
   -1.3131   -1.5164   -9.8982 N   0  0  0  0  0  0
   -0.8940   -0.5327  -10.7238 C   0  0  0  0  0  0
   -1.5261   -0.1593  -11.8591 C   0  0  0  0  0  0
   -1.1416    0.8779  -12.7936 C   0  0  0  0  0  0
   -2.1225    0.8573  -13.7895 C   0  0  0  0  0  0
   -2.0970    1.7166  -14.8703 C   0  0  0  0  0  0
   -1.0397    2.6258  -14.9398 C   0  0  0  0  0  0
   -0.0468    2.6548  -13.9423 C   0  0  0  0  0  0
   -0.0920    1.7748  -12.8555 C   0  0  0  0  0  0
   -0.9623    3.5557  -16.0559 C   0  0  0  0  0  0
   -0.4561    4.6837  -15.9931 O   0  0  0  0  0  0
   -1.5188    3.0285  -17.1890 O   0  0  0  0  0  0
   -1.5023    3.8512  -18.3606 C   0  0  0  0  0  0
   -3.0788   -0.1276  -13.5179 N   0  0  0  0  0  0
   -2.7830   -0.8086  -12.3327 C   0  0  0  0  0  0
   -3.3922   -1.7165  -11.7979 O   0  0  0  0  0  0
    0.3602    0.1746  -10.3605 C   0  0  0  0  0  0
    0.3112    1.3120   -9.5545 C   0  0  0  0  0  0
    1.4892    1.9763   -9.2132 C   0  0  0  0  0  0
    2.7164    1.5033   -9.6780 C   0  0  0  0  0  0
    2.7654    0.3659  -10.4840 C   0  0  0  0  0  0
    1.5873   -0.2984  -10.8253 C   0  0  0  0  0  0
    8.5473   -4.1572   -1.3510 H   0  0  0  0  0  0
    8.4512   -2.4560   -1.9196 H   0  0  0  0  0  0
    8.6257   -3.7917   -3.1080 H   0  0  0  0  0  0
    6.7614   -5.3555   -3.4137 H   0  0  0  0  0  0
    6.6713   -5.6289   -1.6407 H   0  0  0  0  0  0
    4.5203   -6.1584   -2.7960 H   0  0  0  0  0  0
    4.3425   -4.8223   -1.6087 H   0  0  0  0  0  0
    4.3180   -2.2261   -4.2212 H   0  0  0  0  0  0
    4.2270   -2.4997   -2.4482 H   0  0  0  0  0  0
    6.4551   -1.6908   -3.0704 H   0  0  0  0  0  0
    6.6344   -3.0249   -4.2598 H   0  0  0  0  0  0
    2.5185   -5.4107   -3.5847 H   0  0  0  0  0  0
    2.3494   -3.7471   -2.9287 H   0  0  0  0  0  0
   -0.7483   -2.8058   -4.1382 H   0  0  0  0  0  0
    0.7393   -2.5990   -3.1528 H   0  0  0  0  0  0
    0.0849   -4.2439   -3.4568 H   0  0  0  0  0  0
   -0.7855   -1.3893   -5.3550 H   0  0  0  0  0  0
   -1.8150   -0.5936   -7.4449 H   0  0  0  0  0  0
    0.5058   -3.4571   -9.6789 H   0  0  0  0  0  0
    1.5354   -4.2531   -7.5900 H   0  0  0  0  0  0
   -2.2400   -1.9805  -10.2661 H   0  0  0  0  0  0
   -2.8680    1.6840  -15.6326 H   0  0  0  0  0  0
    0.7722    3.3679  -14.0085 H   0  0  0  0  0  0
    0.6778    1.8058  -12.0925 H   0  0  0  0  0  0
   -1.9770    3.3122  -19.1938 H   0  0  0  0  0  0
   -0.4620    4.0920  -18.6249 H   0  0  0  0  0  0
   -2.0552    4.7814  -18.1632 H   0  0  0  0  0  0
   -3.9242   -0.2778  -14.2055 H   0  0  0  0  0  0
   -0.6377    1.6929   -9.1844 H   0  0  0  0  0  0
    1.4512    2.8620   -8.5858 H   0  0  0  0  0  0
    3.6337    2.0205   -9.4124 H   0  0  0  0  0  0
    3.7210   -0.0024  -10.8458 H   0  0  0  0  0  0
    1.6418   -1.1836  -11.4545 H   0  0  0  0  0  0
    4.6896   -4.5742   -4.5878 H   0  0  0  0  0  0
  1  2  1  0  0  0
  1 41  1  0  0  0
  1 42  1  0  0  0
  1 43  1  0  0  0
  2  7  1  0  0  0
  2  3  1  0  0  0
  3  4  1  0  0  0
  3 44  1  0  0  0
  3 45  1  0  0  0
  4  5  1  0  0  0
  4 46  1  0  0  0
  4 47  1  0  0  0
  5  6  1  0  0  0
  5  8  1  0  0  0
  5 74  1  0  0  0
  6  7  1  0  0  0
  6 48  1  0  0  0
  6 49  1  0  0  0
  7 50  1  0  0  0
  7 51  1  0  0  0
  8  9  1  0  0  0
  8 52  1  0  0  0
  8 53  1  0  0  0
  9 10  2  0  0  0
  9 11  1  0  0  0
 11 12  1  0  0  0
 11 13  1  0  0  0
 12 54  1  0  0  0
 12 55  1  0  0  0
 12 56  1  0  0  0
 13 18  2  0  0  0
 13 14  1  0  0  0
 14 15  2  0  0  0
 14 57  1  0  0  0
 15 16  1  0  0  0
 15 58  1  0  0  0
 16 17  2  0  0  0
 16 19  1  0  0  0
 17 18  1  0  0  0
 17 59  1  0  0  0
 18 60  1  0  0  0
 19 20  1  0  0  0
 19 61  1  0  0  0
 20 21  2  0  0  0
 20 35  1  0  0  0
 21 33  1  0  0  0
 21 22  1  0  0  0
 22 27  2  0  0  0
 22 23  1  0  0  0
 23 24  2  0  0  0
 23 32  1  0  0  0
 24 25  1  0  0  0
 24 62  1  0  0  0
 25 26  2  0  0  0
 25 28  1  0  0  0
 26 27  1  0  0  0
 26 63  1  0  0  0
 27 64  1  0  0  0
 28 29  2  0  0  0
 28 30  1  0  0  0
 30 31  1  0  0  0
 31 65  1  0  0  0
 31 66  1  0  0  0
 31 67  1  0  0  0
 32 33  1  0  0  0
 32 68  1  0  0  0
 33 34  2  0  0  0
 35 40  2  0  0  0
 35 36  1  0  0  0
 36 37  2  0  0  0
 36 69  1  0  0  0
 37 38  1  0  0  0
 37 70  1  0  0  0
 38 39  2  0  0  0
 38 71  1  0  0  0
 39 40  1  0  0  0
 39 72  1  0  0  0
 40 73  1  0  0  0
M  CHG  1   5   1
M  END
> <s_m_source_file>
/Users/choderaj/github/choderalab/mcce-charges/mcce-charges.jchodera/epik_inhibitors/output/Nintedanib/Nintedanib-input.mol2

> <i_m_source_file_index>
1

> <r_epik_Ionization_Penalty>
  0.0957

> <r_epik_Ionization_Penalty_Charging>
  0.0952

> <r_epik_Ionization_Penalty_Neutral>
  0.0005

> <r_epik_State_Penalty>
  3.4870

> <i_epik_Tot_Q>
1

> <s_epik_Chemistry_Notes>
This compound has an ester and may undergo hydrolysis at high or low pH.

$$$$
