@<TRIPOS>MOLECULE
4-methyl-~{N}-[3-(4-methylimidazol-1-yl)-5-(trifluoromethyl)phenyl]-3-[[4-(3-pyridyl)pyrimidin-2-yl]amino]benzamide
   61    65     0     0     0
SMALL
USER_CHARGES

@<TRIPOS>ATOM
      1 C1          1.9571   -1.0275   -1.6049 C.3       1 NIL        -0.0655
      2 C2          1.8851   -1.0363   -0.1124 C.ar      1 NIL        -0.0274
      3 C3          2.9210   -1.6309    0.6081 C.ar      1 NIL        -0.1322
      4 C4          2.8783   -1.6520    2.0022 C.ar      1 NIL        -0.1077
      5 C5          1.7997   -1.0786    2.6757 C.ar      1 NIL        -0.1495
      6 C6          0.7638   -0.4841    1.9551 C.ar      1 NIL        -0.0856
      7 C7          0.8066   -0.4630    0.5610 C.ar      1 NIL         0.1432
      8 N1         -0.2506    0.1438   -0.1525 N.pl3     1 NIL        -0.7540
      9 C8         -1.6211    0.2991    0.1258 C.ar      1 NIL         0.8957
     10 N2         -2.3535    0.9462   -0.8007 N.ar      1 NIL        -0.7363
     11 C9         -3.6625    1.0774   -0.5016 C.ar      1 NIL         0.4624
     12 C10        -4.2363    0.5958    0.6574 C.ar      1 NIL        -0.4098
     13 C11        -3.3783   -0.0483    1.5252 C.ar      1 NIL         0.5378
     14 N3         -2.0603   -0.2153    1.2903 N.ar      1 NIL        -0.7508
     15 C12        -3.8531   -0.5990    2.7720 C.ar      1 NIL        -0.2761
     16 C13        -3.3415   -0.1633    3.9893 C.ar      1 NIL        -0.0689
     17 C14        -3.8190   -0.7122    5.1742 C.ar      1 NIL        -0.2498
     18 C15        -4.8008   -1.6862    5.0884 C.ar      1 NIL         0.4043
     19 N4         -5.3220   -2.1350    3.9246 N.ar      1 NIL        -0.6653
     20 C16        -4.8332   -1.5782    2.7938 C.ar      1 NIL         0.4313
     21 C17         1.7565   -1.1006    4.1292 C.2       1 NIL         0.6902
     22 O1          2.3550   -1.9642    4.7855 O.2       1 NIL        -0.5844
     23 N5          1.0265   -0.0567    4.7185 N.am      1 NIL        -0.4714
     24 C18         0.8314    0.2139    6.0964 C.ar      1 NIL         0.1042
     25 C19         1.4065   -0.6166    7.0584 C.ar      1 NIL        -0.1644
     26 C20         1.2155   -0.3498    8.4141 C.ar      1 NIL        -0.1083
     27 C21         0.4494    0.7473    8.8079 C.ar      1 NIL        -0.1480
     28 C22        -0.1258    1.5777    7.8459 C.ar      1 NIL         0.0653
     29 C23         0.0652    1.3109    6.4902 C.ar      1 NIL        -0.1772
     30 N6         -0.8854    2.6652    8.2364 N.pl3     1 NIL        -0.1500
     31 C24        -1.5148    3.5736    7.4225 C.2       1 NIL        -0.2483
     32 C25        -2.1803    4.5239    8.1604 C.2       1 NIL         0.3179
     33 N7         -1.9478    4.1816    9.4628 N.2       1 NIL        -0.6553
     34 C26        -1.1656    3.0603    9.4584 C.2       1 NIL         0.4180
     35 C27        -2.9841    5.6787    7.7599 C.3       1 NIL        -0.1179
     36 C28         1.8303   -1.2376    9.4425 C.3       1 NIL         0.6865
     37 F1          2.5519   -2.2701    8.9139 F         1 NIL        -0.2343
     38 F2          2.6957   -0.5897   10.2775 F         1 NIL        -0.2343
     39 F3          0.9022   -1.8193   10.2570 F         1 NIL        -0.2343
     40 H1          2.4718   -0.1254   -1.9496 H         1 NIL         0.0563
     41 H2          2.4958   -1.9059   -1.9755 H         1 NIL         0.0563
     42 H3          0.9545   -1.0532   -2.0447 H         1 NIL         0.0563
     43 H4          3.7656   -2.0799    0.0924 H         1 NIL         0.1446
     44 H5          3.6922   -2.1165    2.5532 H         1 NIL         0.1353
     45 H6         -0.0771   -0.0365    2.4806 H         1 NIL         0.1655
     46 H7          0.0376    0.5448   -1.0393 H         1 NIL         0.4666
     47 H8         -4.2577    1.5978   -1.2444 H         1 NIL         0.0298
     48 H9         -5.2927    0.7225    0.8587 H         1 NIL         0.1595
     49 H10        -2.5712    0.6028    4.0298 H         1 NIL         0.1450
     50 H11        -3.4348   -0.3891    6.1348 H         1 NIL         0.1479
     51 H12        -5.2068   -2.1456    5.9840 H         1 NIL         0.0246
     52 H13        -5.2729   -1.9622    1.8776 H         1 NIL         0.0337
     53 H14         0.5956    0.6201    4.0936 H         1 NIL         0.3248
     54 H15         2.0051   -1.4721    6.7533 H         1 NIL         0.1543
     55 H16         0.3025    0.9520    9.8664 H         1 NIL         0.1579
     56 H17        -0.3819    1.9581    5.7381 H         1 NIL         0.1883
     57 H18        -1.4382    3.4700    6.3473 H         1 NIL         0.1810
     58 H19        -0.8310    2.5754   10.3671 H         1 NIL         0.0752
     59 H20        -4.0530    5.4145    7.6443 H         1 NIL         0.0493
     60 H21        -2.9331    6.5091    8.4922 H         1 NIL         0.0493
     61 H22        -2.6525    6.1162    6.7968 H         1 NIL         0.0493
@<TRIPOS>BOND
     1    1    2 1
     2    2    7 ar
     3    2    3 ar
     4    3    4 ar
     5    4    5 ar
     6    5    6 ar
     7    6    7 ar
     8    7    8 1
     9    8    9 1
    10    9   14 ar
    11    9   10 ar
    12   10   11 ar
    13   11   12 ar
    14   12   13 ar
    15   13   14 ar
    16   13   15 1
    17   15   20 ar
    18   15   16 ar
    19   16   17 ar
    20   17   18 ar
    21   18   19 ar
    22   19   20 ar
    23    5   21 1
    24   21   22 2
    25   21   23 am
    26   23   24 1
    27   24   29 ar
    28   24   25 ar
    29   25   26 ar
    30   26   27 ar
    31   27   28 ar
    32   28   29 ar
    33   28   30 1
    34   30   34 1
    35   30   31 1
    36   31   32 2
    37   32   33 1
    38   33   34 2
    39   32   35 1
    40   26   36 1
    41   36   37 1
    42   36   38 1
    43   36   39 1
    44    1   40 1
    45    1   41 1
    46    1   42 1
    47    3   43 1
    48    4   44 1
    49    6   45 1
    50    8   46 1
    51   11   47 1
    52   12   48 1
    53   16   49 1
    54   17   50 1
    55   18   51 1
    56   20   52 1
    57   23   53 1
    58   25   54 1
    59   27   55 1
    60   29   56 1
    61   31   57 1
    62   34   58 1
    63   35   59 1
    64   35   60 1
    65   35   61 1
