@<TRIPOS>MOLECULE
4-methyl-~{N}-[3-(4-methylimidazol-1-yl)-5-(trifluoromethyl)phenyl]-3-[[4-(3-pyridyl)pyrimidin-2-yl]amino]benzamide
   61    65     0     0     0
SMALL
USER_CHARGES

@<TRIPOS>ATOM
      1 O1         27.4370    2.8950   51.2430 O.2       1 <0>        -0.5818
      2 C1         27.1160    2.6680   52.3840 C.2       1 <0>         0.6911
      3 N1         26.0130    3.0980   53.0150 N.am      1 <0>        -0.4717
      4 C2         25.1140    4.0420   52.5350 C.ar      1 <0>         0.1054
      5 C3         24.3180    4.8060   53.4240 C.ar      1 <0>        -0.1759
      6 C4         23.4180    5.7650   52.9510 C.ar      1 <0>         0.0641
      7 N2         22.6560    6.5560   53.8240 N.pl3     1 <0>        -0.1490
      8 C5         22.3140    6.3130   55.1530 C.2       1 <0>        -0.2495
      9 C6         21.4970    7.3060   55.5670 C.2       1 <0>         0.3180
     10 C7         20.8800    7.4930   56.9320 C.3       1 <0>        -0.1176
     11 N3         21.3460    8.1740   54.5420 N.2       1 <0>        -0.6550
     12 C8         22.0110    7.6890   53.5220 C.2       1 <0>         0.4159
     13 C9         23.2420    5.9220   51.5800 C.ar      1 <0>        -0.1459
     14 C10        24.8860    4.1760   51.1480 C.ar      1 <0>        -0.1663
     15 C11        23.9850    5.1690   50.6680 C.ar      1 <0>        -0.1086
     16 C12        23.8080    5.3300   49.1930 C.3       1 <0>         0.6861
     17 F1         23.7250    4.1770   48.5000 F         1 <0>        -0.2341
     18 F2         22.6440    5.9040   48.9120 F         1 <0>        -0.2341
     19 F3         24.8490    5.9670   48.6180 F         1 <0>        -0.2341
     20 C13        27.8680    1.5870   53.0510 C.ar      1 <0>        -0.1462
     21 C14        27.5140    1.0020   54.2760 C.ar      1 <0>        -0.1089
     22 C15        28.2050   -0.1000   54.7820 C.ar      1 <0>        -0.1334
     23 C16        29.2140   -0.7110   54.0550 C.ar      1 <0>        -0.0253
     24 C17        29.9540   -1.9170   54.6160 C.3       1 <0>        -0.0603
     25 C18        29.5010   -0.1980   52.7910 C.ar      1 <0>         0.1434
     26 C19        28.8130    0.9240   52.3120 C.ar      1 <0>        -0.0958
     27 N4         30.6200   -0.6930   52.1090 N.pl3     1 <0>        -0.7455
     28 C20        31.8450   -0.0340   52.2300 C.ar      1 <0>         0.8878
     29 N5         32.1570    1.0110   52.9860 N.ar      1 <0>        -0.7322
     30 C21        33.4140    1.4820   52.8790 C.ar      1 <0>         0.4611
     31 C22        34.3070    0.9710   52.0170 C.ar      1 <0>        -0.4068
     32 C23        33.9360   -0.0810   51.2560 C.ar      1 <0>         0.5362
     33 N6         32.7080   -0.6040   51.3500 N.ar      1 <0>        -0.7457
     34 C24        34.8530   -0.7620   50.3050 C.ar      1 <0>        -0.2744
     35 C25        36.1840   -0.3460   50.1410 C.ar      1 <0>        -0.0692
     36 C26        36.9880   -1.0040   49.2190 C.ar      1 <0>        -0.2507
     37 C27        36.4440   -2.0750   48.5110 C.ar      1 <0>         0.4053
     38 N7         35.1680   -2.4770   48.6290 N.ar      1 <0>        -0.6661
     39 C28        34.4000   -1.8440   49.5250 C.ar      1 <0>         0.4313
     40 H1         25.7541    2.6960   54.0056 H         1 <0>         0.3256
     41 H2         24.4090    4.6440   54.4880 H         1 <0>         0.1873
     42 H3         22.6450    5.4750   55.7490 H         1 <0>         0.1813
     43 H4         20.2653    8.4052   56.9347 H         1 <0>         0.0495
     44 H5         21.6766    7.5854   57.6849 H         1 <0>         0.0495
     45 H6         20.2485    6.6246   57.1710 H         1 <0>         0.0495
     46 H7         22.0360    8.1520   52.5470 H         1 <0>         0.0749
     47 H8         22.5200    6.6370   51.2150 H         1 <0>         0.1613
     48 H9         25.3950    3.5260   50.4520 H         1 <0>         0.1510
     49 H10        26.6890    1.4130   54.8390 H         1 <0>         0.1356
     50 H11        27.9480   -0.4840   55.7580 H         1 <0>         0.1426
     51 H12        30.7113   -2.2519   53.8919 H         1 <0>         0.0559
     52 H13        29.2390   -2.7319   54.8022 H         1 <0>         0.0559
     53 H14        30.4465   -1.6387   55.5594 H         1 <0>         0.0559
     54 H15        29.0370    1.2820   51.3180 H         1 <0>         0.1619
     55 H16        30.5293   -1.5939   51.4844 H         1 <0>         0.4606
     56 H17        33.7160    2.3040   53.5120 H         1 <0>         0.0300
     57 H18        35.2980    1.3910   51.9340 H         1 <0>         0.1596
     58 H19        36.5770    0.4740   50.7240 H         1 <0>         0.1443
     59 H20        38.0090   -0.6940   49.0550 H         1 <0>         0.1471
     60 H21        37.0860   -2.6120   47.8280 H         1 <0>         0.0256
     61 H22        33.3820   -2.1800   49.6560 H         1 <0>         0.0338
@<TRIPOS>BOND
     1    1    2 2
     2    2    3 am
     3    2   20 1
     4    3    4 1
     5    3   40 1
     6    4    5 ar
     7    4   14 ar
     8    5    6 ar
     9    5   41 1
    10    6    7 1
    11    6   13 ar
    12    7    8 1
    13    7   12 1
    14    8    9 2
    15    8   42 1
    16    9   10 1
    17    9   11 1
    18   10   43 1
    19   10   44 1
    20   10   45 1
    21   11   12 2
    22   12   46 1
    23   13   15 ar
    24   13   47 1
    25   14   15 ar
    26   14   48 1
    27   15   16 1
    28   16   17 1
    29   16   18 1
    30   16   19 1
    31   20   21 ar
    32   20   26 ar
    33   21   22 ar
    34   21   49 1
    35   22   23 ar
    36   22   50 1
    37   23   24 1
    38   23   25 ar
    39   24   51 1
    40   24   52 1
    41   24   53 1
    42   25   26 ar
    43   25   27 1
    44   26   54 1
    45   27   28 1
    46   27   55 1
    47   28   29 ar
    48   28   33 ar
    49   29   30 ar
    50   30   31 ar
    51   30   56 1
    52   31   32 ar
    53   31   57 1
    54   32   33 ar
    55   32   34 1
    56   34   35 ar
    57   34   39 ar
    58   35   36 ar
    59   35   58 1
    60   36   37 ar
    61   36   59 1
    62   37   38 ar
    63   37   60 1
    64   38   39 ar
    65   39   61 1
@<TRIPOS>MOLECULE
4-methyl-~{N}-[3-(4-methylimidazol-3-ium-1-yl)-5-(trifluoromethyl)phenyl]-3-[[4-(3-pyridyl)pyrimidin-2-yl]amino]benzamide
   62    66     0     0     0
SMALL
USER_CHARGES

@<TRIPOS>ATOM
      1 O1         27.4370    2.8950   51.2430 O.2       1 <0>        -0.5519
      2 C1         27.1160    2.6680   52.3840 C.2       1 <0>         0.6956
      3 N1         26.0130    3.0980   53.0150 N.am      1 <0>        -0.4739
      4 C2         25.1140    4.0420   52.5350 C.ar      1 <0>         0.1301
      5 C3         24.3180    4.8060   53.4240 C.ar      1 <0>        -0.1797
      6 C4         23.4180    5.7650   52.9510 C.ar      1 <0>        -0.0153
      7 N2         22.6560    6.5560   53.8240 N.pl3     1 <0>         0.0768
      8 C5         22.3140    6.3130   55.1530 C.2       1 <0>        -0.1320
      9 C6         21.4970    7.3060   55.5670 C.2       1 <0>        -0.0449
     10 C7         20.8800    7.4930   56.9320 C.3       1 <0>        -0.0590
     11 N3         21.3460    8.1740   54.5420 N.pl3     1 <0>        -0.1423
     12 C8         22.0110    7.6890   53.5220 C.cat     1 <0>        -0.0217
     13 C9         23.2420    5.9220   51.5800 C.ar      1 <0>        -0.1321
     14 C10        24.8860    4.1760   51.1480 C.ar      1 <0>        -0.0930
     15 C11        23.9850    5.1690   50.6680 C.ar      1 <0>        -0.1097
     16 C12        23.8080    5.3300   49.1930 C.3       1 <0>         0.6902
     17 F1         23.7250    4.1770   48.5000 F         1 <0>        -0.2197
     18 F2         22.6440    5.9040   48.9120 F         1 <0>        -0.2197
     19 F3         24.8490    5.9670   48.6180 F         1 <0>        -0.2197
     20 C13        27.8680    1.5870   53.0510 C.ar      1 <0>        -0.1571
     21 C14        27.5140    1.0020   54.2760 C.ar      1 <0>        -0.1164
     22 C15        28.2050   -0.1000   54.7820 C.ar      1 <0>        -0.1299
     23 C16        29.2140   -0.7110   54.0550 C.ar      1 <0>        -0.0119
     24 C17        29.9540   -1.9170   54.6160 C.3       1 <0>        -0.0640
     25 C18        29.5010   -0.1980   52.7910 C.ar      1 <0>         0.1515
     26 C19        28.8130    0.9240   52.3120 C.ar      1 <0>        -0.0992
     27 N4         30.6200   -0.6930   52.1090 N.pl3     1 <0>        -0.7380
     28 C20        31.8450   -0.0340   52.2300 C.ar      1 <0>         0.8714
     29 N5         32.1570    1.0110   52.9860 N.ar      1 <0>        -0.7351
     30 C21        33.4140    1.4820   52.8790 C.ar      1 <0>         0.4585
     31 C22        34.3070    0.9710   52.0170 C.ar      1 <0>        -0.3896
     32 C23        33.9360   -0.0810   51.2560 C.ar      1 <0>         0.5368
     33 N6         32.7080   -0.6040   51.3500 N.ar      1 <0>        -0.7341
     34 C24        34.8530   -0.7620   50.3050 C.ar      1 <0>        -0.2839
     35 C25        36.1840   -0.3460   50.1410 C.ar      1 <0>        -0.0550
     36 C26        36.9880   -1.0040   49.2190 C.ar      1 <0>        -0.2495
     37 C27        36.4440   -2.0750   48.5110 C.ar      1 <0>         0.4094
     38 N7         35.1680   -2.4770   48.6290 N.ar      1 <0>        -0.6603
     39 C28        34.4000   -1.8440   49.5250 C.ar      1 <0>         0.4205
     40 H1         25.7541    2.6960   54.0056 H         1 <0>         0.3293
     41 H2         24.4090    4.6440   54.4880 H         1 <0>         0.1470
     42 H3         22.6450    5.4750   55.7490 H         1 <0>         0.2283
     43 H4         20.2653    8.4052   56.9347 H         1 <0>         0.0896
     44 H5         21.6766    7.5854   57.6849 H         1 <0>         0.0896
     45 H6         20.2485    6.6246   57.1710 H         1 <0>         0.0896
     46 H7         22.0360    8.1520   52.5470 H         1 <0>         0.2615
     47 H8         22.5200    6.6370   51.2150 H         1 <0>         0.1573
     48 H9         25.3950    3.5260   50.4520 H         1 <0>         0.2183
     49 H10        26.6890    1.4130   54.8390 H         1 <0>         0.1248
     50 H11        27.9480   -0.4840   55.7580 H         1 <0>         0.1452
     51 H12        30.7113   -2.2519   53.8919 H         1 <0>         0.0615
     52 H13        29.2390   -2.7319   54.8022 H         1 <0>         0.0615
     53 H14        30.4465   -1.6387   55.5594 H         1 <0>         0.0615
     54 H15        29.0370    1.2820   51.3180 H         1 <0>         0.1619
     55 H16        30.5293   -1.5939   51.4844 H         1 <0>         0.4539
     56 H17        33.7160    2.3040   53.5120 H         1 <0>         0.0340
     57 H18        35.2980    1.3910   51.9340 H         1 <0>         0.1670
     58 H19        36.5770    0.4740   50.7240 H         1 <0>         0.1489
     59 H20        38.0090   -0.6940   49.0550 H         1 <0>         0.1503
     60 H21        37.0860   -2.6120   47.8280 H         1 <0>         0.0296
     61 H22        33.3820   -2.1800   49.6560 H         1 <0>         0.0282
     62 H23        20.7456    9.0857   54.6773 H         1 <0>         0.3586
@<TRIPOS>BOND
     1    1    2 2
     2    2    3 am
     3    2   20 1
     4    3    4 1
     5    3   40 1
     6    4    5 ar
     7    4   14 ar
     8    5    6 ar
     9    5   41 1
    10    6    7 1
    11    6   13 ar
    12    7    8 1
    13    7   12 1
    14    8    9 2
    15    8   42 1
    16    9   10 1
    17    9   11 1
    18   10   43 1
    19   10   44 1
    20   10   45 1
    21   11   12 2
    22   11   62 1
    23   12   46 1
    24   13   15 ar
    25   13   47 1
    26   14   15 ar
    27   14   48 1
    28   15   16 1
    29   16   17 1
    30   16   18 1
    31   16   19 1
    32   20   21 ar
    33   20   26 ar
    34   21   22 ar
    35   21   49 1
    36   22   23 ar
    37   22   50 1
    38   23   24 1
    39   23   25 ar
    40   24   51 1
    41   24   52 1
    42   24   53 1
    43   25   26 ar
    44   25   27 1
    45   26   54 1
    46   27   28 1
    47   27   55 1
    48   28   29 ar
    49   28   33 ar
    50   29   30 ar
    51   30   31 ar
    52   30   56 1
    53   31   32 ar
    54   31   57 1
    55   32   33 ar
    56   32   34 1
    57   34   35 ar
    58   34   39 ar
    59   35   36 ar
    60   35   58 1
    61   36   37 ar
    62   36   59 1
    63   37   38 ar
    64   37   60 1
    65   38   39 ar
    66   39   61 1
@<TRIPOS>MOLECULE
4-methyl-~{N}-[3-(4-methylimidazol-1-yl)-5-(trifluoromethyl)phenyl]-3-[(4-pyridin-1-ium-3-ylpyrimidin-2-yl)amino]benzamide
   62    66     0     0     0
SMALL
USER_CHARGES

@<TRIPOS>ATOM
      1 O1         27.4370    2.8950   51.2430 O.2       1 <0>        -0.5812
      2 C1         27.1160    2.6680   52.3840 C.2       1 <0>         0.6872
      3 N1         26.0130    3.0980   53.0150 N.am      1 <0>        -0.4667
      4 C2         25.1140    4.0420   52.5350 C.ar      1 <0>         0.0950
      5 C3         24.3180    4.8060   53.4240 C.ar      1 <0>        -0.1747
      6 C4         23.4180    5.7650   52.9510 C.ar      1 <0>         0.0663
      7 N2         22.6560    6.5560   53.8240 N.pl3     1 <0>        -0.1520
      8 C5         22.3140    6.3130   55.1530 C.2       1 <0>        -0.2465
      9 C6         21.4970    7.3060   55.5670 C.2       1 <0>         0.3224
     10 C7         20.8800    7.4930   56.9320 C.3       1 <0>        -0.1209
     11 N3         21.3460    8.1740   54.5420 N.2       1 <0>        -0.6523
     12 C8         22.0110    7.6890   53.5220 C.2       1 <0>         0.4132
     13 C9         23.2420    5.9220   51.5800 C.ar      1 <0>        -0.1397
     14 C10        24.8860    4.1760   51.1480 C.ar      1 <0>        -0.1624
     15 C11        23.9850    5.1690   50.6680 C.ar      1 <0>        -0.1064
     16 C12        23.8080    5.3300   49.1930 C.3       1 <0>         0.6864
     17 F1         23.7250    4.1770   48.5000 F         1 <0>        -0.2316
     18 F2         22.6440    5.9040   48.9120 F         1 <0>        -0.2316
     19 F3         24.8490    5.9670   48.6180 F         1 <0>        -0.2316
     20 C13        27.8680    1.5870   53.0510 C.ar      1 <0>        -0.1417
     21 C14        27.5140    1.0020   54.2760 C.ar      1 <0>        -0.0907
     22 C15        28.2050   -0.1000   54.7820 C.ar      1 <0>        -0.1301
     23 C16        29.2140   -0.7110   54.0550 C.ar      1 <0>        -0.0246
     24 C17        29.9540   -1.9170   54.6160 C.3       1 <0>        -0.0606
     25 C18        29.5010   -0.1980   52.7910 C.ar      1 <0>         0.1147
     26 C19        28.8130    0.9240   52.3120 C.ar      1 <0>        -0.0844
     27 N4         30.6200   -0.6930   52.1090 N.pl3     1 <0>        -0.7257
     28 C20        31.8450   -0.0340   52.2300 C.ar      1 <0>         0.9101
     29 N5         32.1570    1.0110   52.9860 N.ar      1 <0>        -0.6962
     30 C21        33.4140    1.4820   52.8790 C.ar      1 <0>         0.4825
     31 C22        34.3070    0.9710   52.0170 C.ar      1 <0>        -0.4067
     32 C23        33.9360   -0.0810   51.2560 C.ar      1 <0>         0.4762
     33 N6         32.7080   -0.6040   51.3500 N.ar      1 <0>        -0.7650
     34 C24        34.8530   -0.7620   50.3050 C.ar      1 <0>        -0.1272
     35 C25        36.1840   -0.3460   50.1410 C.ar      1 <0>         0.0142
     36 C26        36.9880   -1.0040   49.2190 C.ar      1 <0>        -0.1377
     37 C27        36.4440   -2.0750   48.5110 C.ar      1 <0>        -0.0236
     38 N7         35.1680   -2.4770   48.6290 N.ar      1 <0>        -0.0824
     39 C28        34.4000   -1.8440   49.5250 C.ar      1 <0>        -0.0079
     40 H1         25.7541    2.6960   54.0056 H         1 <0>         0.3247
     41 H2         24.4090    4.6440   54.4880 H         1 <0>         0.1840
     42 H3         22.6450    5.4750   55.7490 H         1 <0>         0.1839
     43 H4         20.2653    8.4052   56.9347 H         1 <0>         0.0527
     44 H5         21.6766    7.5854   57.6849 H         1 <0>         0.0527
     45 H6         20.2485    6.6246   57.1710 H         1 <0>         0.0527
     46 H7         22.0360    8.1520   52.5470 H         1 <0>         0.0708
     47 H8         22.5200    6.6370   51.2150 H         1 <0>         0.1656
     48 H9         25.3950    3.5260   50.4520 H         1 <0>         0.1515
     49 H10        26.6890    1.4130   54.8390 H         1 <0>         0.1471
     50 H11        27.9480   -0.4840   55.7580 H         1 <0>         0.1513
     51 H12        30.7113   -2.2519   53.8919 H         1 <0>         0.0551
     52 H13        29.2390   -2.7319   54.8022 H         1 <0>         0.0551
     53 H14        30.4465   -1.6387   55.5594 H         1 <0>         0.0551
     54 H15        29.0370    1.2820   51.3180 H         1 <0>         0.1646
     55 H16        30.5293   -1.5939   51.4844 H         1 <0>         0.4654
     56 H17        33.7160    2.3040   53.5120 H         1 <0>         0.0520
     57 H18        35.2980    1.3910   51.9340 H         1 <0>         0.1637
     58 H19        36.5770    0.4740   50.7240 H         1 <0>         0.2027
     59 H20        38.0090   -0.6940   49.0550 H         1 <0>         0.2052
     60 H21        37.0860   -2.6120   47.8280 H         1 <0>         0.2144
     61 H22        33.3820   -2.1800   49.6560 H         1 <0>         0.2193
     62 H23        34.7898   -3.2980   48.0022 H         1 <0>         0.3449
@<TRIPOS>BOND
     1    1    2 2
     2    2    3 am
     3    2   20 1
     4    3    4 1
     5    3   40 1
     6    4    5 ar
     7    4   14 ar
     8    5    6 ar
     9    5   41 1
    10    6    7 1
    11    6   13 ar
    12    7    8 1
    13    7   12 1
    14    8    9 2
    15    8   42 1
    16    9   10 1
    17    9   11 1
    18   10   43 1
    19   10   44 1
    20   10   45 1
    21   11   12 2
    22   12   46 1
    23   13   15 ar
    24   13   47 1
    25   14   15 ar
    26   14   48 1
    27   15   16 1
    28   16   17 1
    29   16   18 1
    30   16   19 1
    31   20   21 ar
    32   20   26 ar
    33   21   22 ar
    34   21   49 1
    35   22   23 ar
    36   22   50 1
    37   23   24 1
    38   23   25 ar
    39   24   51 1
    40   24   52 1
    41   24   53 1
    42   25   26 ar
    43   25   27 1
    44   26   54 1
    45   27   28 1
    46   27   55 1
    47   28   29 ar
    48   28   33 ar
    49   29   30 ar
    50   30   31 ar
    51   30   56 1
    52   31   32 ar
    53   31   57 1
    54   32   33 ar
    55   32   34 1
    56   34   35 ar
    57   34   39 ar
    58   35   36 ar
    59   35   58 1
    60   36   37 ar
    61   36   59 1
    62   37   38 ar
    63   37   60 1
    64   38   39 ar
    65   38   62 1
    66   39   61 1
