@<TRIPOS>MOLECULE
NIL
   61    65     0     0     0
SMALL
NO_CHARGES

@<TRIPOS>ATOM
      1 O1         27.4370    2.8950   51.2430 O.2       1 NIL         0.0000
      2 C1         27.1160    2.6680   52.3840 C.2       1 NIL         0.0000
      3 N1         26.0130    3.0980   53.0150 N.am      1 NIL         0.0000
      4 C2         25.1140    4.0420   52.5350 C.ar      1 NIL         0.0000
      5 C3         24.3180    4.8060   53.4240 C.ar      1 NIL         0.0000
      6 C4         23.4180    5.7650   52.9510 C.ar      1 NIL         0.0000
      7 N2         22.6560    6.5560   53.8240 N.pl3     1 NIL         0.0000
      8 C5         22.3140    6.3130   55.1530 C.2       1 NIL         0.0000
      9 C6         21.4970    7.3060   55.5670 C.2       1 NIL         0.0000
     10 C7         20.8800    7.4930   56.9320 C.3       1 NIL         0.0000
     11 N3         21.3460    8.1740   54.5420 N.2       1 NIL         0.0000
     12 C8         22.0110    7.6890   53.5220 C.2       1 NIL         0.0000
     13 C9         23.2420    5.9220   51.5800 C.ar      1 NIL         0.0000
     14 C10        24.8860    4.1760   51.1480 C.ar      1 NIL         0.0000
     15 C11        23.9850    5.1690   50.6680 C.ar      1 NIL         0.0000
     16 C12        23.8080    5.3300   49.1930 C.3       1 NIL         0.0000
     17 F1         23.7250    4.1770   48.5000 F         1 NIL         0.0000
     18 F2         22.6440    5.9040   48.9120 F         1 NIL         0.0000
     19 F3         24.8490    5.9670   48.6180 F         1 NIL         0.0000
     20 C13        27.8680    1.5870   53.0510 C.ar      1 NIL         0.0000
     21 C14        27.5140    1.0020   54.2760 C.ar      1 NIL         0.0000
     22 C15        28.2050   -0.1000   54.7820 C.ar      1 NIL         0.0000
     23 C16        29.2140   -0.7110   54.0550 C.ar      1 NIL         0.0000
     24 C17        29.9540   -1.9170   54.6160 C.3       1 NIL         0.0000
     25 C18        29.5010   -0.1980   52.7910 C.ar      1 NIL         0.0000
     26 C19        28.8130    0.9240   52.3120 C.ar      1 NIL         0.0000
     27 N4         30.6200   -0.6930   52.1090 N.pl3     1 NIL         0.0000
     28 C20        31.8450   -0.0340   52.2300 C.ar      1 NIL         0.0000
     29 N5         32.1570    1.0110   52.9860 N.ar      1 NIL         0.0000
     30 C21        33.4140    1.4820   52.8790 C.ar      1 NIL         0.0000
     31 C22        34.3070    0.9710   52.0170 C.ar      1 NIL         0.0000
     32 C23        33.9360   -0.0810   51.2560 C.ar      1 NIL         0.0000
     33 N6         32.7080   -0.6040   51.3500 N.ar      1 NIL         0.0000
     34 C24        34.8530   -0.7620   50.3050 C.ar      1 NIL         0.0000
     35 C25        36.1840   -0.3460   50.1410 C.ar      1 NIL         0.0000
     36 C26        36.9880   -1.0040   49.2190 C.ar      1 NIL         0.0000
     37 C27        36.4440   -2.0750   48.5110 C.ar      1 NIL         0.0000
     38 N7         35.1680   -2.4770   48.6290 N.ar      1 NIL         0.0000
     39 C28        34.4000   -1.8440   49.5250 C.ar      1 NIL         0.0000
     40 H1         25.8200    2.7030   53.9130 H         1 NIL         0.0000
     41 H2         24.4090    4.6440   54.4880 H         1 NIL         0.0000
     42 H3         22.6450    5.4750   55.7490 H         1 NIL         0.0000
     43 H4         21.6750    7.5380   57.6910 H         1 NIL         0.0000
     44 H5         20.3030    8.4300   56.9480 H         1 NIL         0.0000
     45 H6         20.2120    6.6470   57.1510 H         1 NIL         0.0000
     46 H7         22.0360    8.1520   52.5470 H         1 NIL         0.0000
     47 H8         22.5200    6.6370   51.2150 H         1 NIL         0.0000
     48 H9         25.3950    3.5260   50.4520 H         1 NIL         0.0000
     49 H10        26.6890    1.4130   54.8390 H         1 NIL         0.0000
     50 H11        27.9480   -0.4840   55.7580 H         1 NIL         0.0000
     51 H12        30.1330   -2.6450   53.8110 H         1 NIL         0.0000
     52 H13        30.9170   -1.5930   55.0370 H         1 NIL         0.0000
     53 H14        29.3470   -2.3850   55.4050 H         1 NIL         0.0000
     54 H15        29.0370    1.2820   51.3180 H         1 NIL         0.0000
     55 H16        30.5420   -1.5120   51.5400 H         1 NIL         0.0000
     56 H17        33.7160    2.3040   53.5120 H         1 NIL         0.0000
     57 H18        35.2980    1.3910   51.9340 H         1 NIL         0.0000
     58 H19        36.5770    0.4740   50.7240 H         1 NIL         0.0000
     59 H20        38.0090   -0.6940   49.0550 H         1 NIL         0.0000
     60 H21        37.0860   -2.6120   47.8280 H         1 NIL         0.0000
     61 H22        33.3820   -2.1800   49.6560 H         1 NIL         0.0000
@<TRIPOS>BOND
     1    1    2 2
     2    2    3 am
     3    2   20 1
     4    3    4 1
     5    3   40 1
     6    4    5 ar
     7    4   14 ar
     8    5    6 ar
     9    5   41 1
    10    6    7 1
    11    6   13 ar
    12    7    8 1
    13    7   12 1
    14    8    9 2
    15    8   42 1
    16    9   10 1
    17    9   11 1
    18   10   43 1
    19   10   44 1
    20   10   45 1
    21   11   12 2
    22   12   46 1
    23   13   15 ar
    24   13   47 1
    25   14   15 ar
    26   14   48 1
    27   15   16 1
    28   16   17 1
    29   16   18 1
    30   16   19 1
    31   20   21 ar
    32   20   26 ar
    33   21   22 ar
    34   21   49 1
    35   22   23 ar
    36   22   50 1
    37   23   24 1
    38   23   25 ar
    39   24   51 1
    40   24   52 1
    41   24   53 1
    42   25   26 ar
    43   25   27 1
    44   26   54 1
    45   27   28 1
    46   27   55 1
    47   28   29 ar
    48   28   33 ar
    49   29   30 ar
    50   30   31 ar
    51   30   56 1
    52   31   32 ar
    53   31   57 1
    54   32   33 ar
    55   32   34 1
    56   34   35 ar
    57   34   39 ar
    58   35   36 ar
    59   35   58 1
    60   36   37 ar
    61   36   59 1
    62   37   38 ar
    63   37   60 1
    64   38   39 ar
    65   39   61 1
