4-methyl-~{N}-[3-(4-methylimidazol-1-yl)-5-(trifluoromethyl)phenyl]-3-[[4-(3-pyridyl)pyrimidin-2-yl]amino]benzamide
                    3D
 Structure written by MMmdl.
 61 65  0  0  1  0            999 V2000
    1.9571   -1.0275   -1.6049 C   0  0  0  0  0  0
    1.8851   -1.0363   -0.1124 C   0  0  0  0  0  0
    2.9210   -1.6309    0.6081 C   0  0  0  0  0  0
    2.8783   -1.6520    2.0022 C   0  0  0  0  0  0
    1.7997   -1.0786    2.6757 C   0  0  0  0  0  0
    0.7638   -0.4841    1.9551 C   0  0  0  0  0  0
    0.8066   -0.4630    0.5610 C   0  0  0  0  0  0
   -0.2506    0.1438   -0.1525 N   0  0  0  0  0  0
   -1.6211    0.2991    0.1258 C   0  0  0  0  0  0
   -2.3535    0.9462   -0.8007 N   0  0  0  0  0  0
   -3.6625    1.0774   -0.5016 C   0  0  0  0  0  0
   -4.2363    0.5958    0.6574 C   0  0  0  0  0  0
   -3.3783   -0.0483    1.5252 C   0  0  0  0  0  0
   -2.0603   -0.2153    1.2903 N   0  0  0  0  0  0
   -3.8531   -0.5990    2.7720 C   0  0  0  0  0  0
   -3.3415   -0.1633    3.9893 C   0  0  0  0  0  0
   -3.8190   -0.7122    5.1742 C   0  0  0  0  0  0
   -4.8008   -1.6862    5.0884 C   0  0  0  0  0  0
   -5.3220   -2.1350    3.9246 N   0  0  0  0  0  0
   -4.8332   -1.5782    2.7938 C   0  0  0  0  0  0
    1.7565   -1.1006    4.1292 C   0  0  0  0  0  0
    2.3550   -1.9642    4.7855 O   0  0  0  0  0  0
    1.0265   -0.0567    4.7185 N   0  0  0  0  0  0
    0.8314    0.2139    6.0964 C   0  0  0  0  0  0
    1.4065   -0.6166    7.0584 C   0  0  0  0  0  0
    1.2155   -0.3498    8.4141 C   0  0  0  0  0  0
    0.4494    0.7473    8.8079 C   0  0  0  0  0  0
   -0.1258    1.5777    7.8459 C   0  0  0  0  0  0
    0.0652    1.3109    6.4902 C   0  0  0  0  0  0
   -0.8854    2.6652    8.2364 N   0  0  0  0  0  0
   -1.5148    3.5736    7.4225 C   0  0  0  0  0  0
   -2.1803    4.5239    8.1604 C   0  0  0  0  0  0
   -1.9478    4.1816    9.4627 N   0  0  0  0  0  0
   -1.1656    3.0603    9.4584 C   0  0  0  0  0  0
   -2.9841    5.6787    7.7599 C   0  0  0  0  0  0
    1.8303   -1.2376    9.4424 C   0  0  0  0  0  0
    2.5519   -2.2701    8.9139 F   0  0  0  0  0  0
    2.6957   -0.5897   10.2775 F   0  0  0  0  0  0
    0.9022   -1.8193   10.2570 F   0  0  0  0  0  0
    2.8815   -1.5271   -1.9303 H   0  0  0  0  0  0
    1.9552    0.0116   -1.9659 H   0  0  0  0  0  0
    1.0876   -1.5605   -2.0171 H   0  0  0  0  0  0
    3.7656   -2.0799    0.0924 H   0  0  0  0  0  0
    3.6922   -2.1165    2.5532 H   0  0  0  0  0  0
   -0.0771   -0.0365    2.4806 H   0  0  0  0  0  0
   -0.0573    0.6133   -1.1283 H   0  0  0  0  0  0
   -4.2577    1.5979   -1.2444 H   0  0  0  0  0  0
   -5.2927    0.7225    0.8587 H   0  0  0  0  0  0
   -2.5712    0.6028    4.0298 H   0  0  0  0  0  0
   -3.4348   -0.3891    6.1348 H   0  0  0  0  0  0
   -5.2068   -2.1456    5.9840 H   0  0  0  0  0  0
   -5.2729   -1.9622    1.8776 H   0  0  0  0  0  0
    0.5146    0.6825    4.0848 H   0  0  0  0  0  0
    2.0051   -1.4721    6.7533 H   0  0  0  0  0  0
    0.3025    0.9520    9.8664 H   0  0  0  0  0  0
   -0.3819    1.9581    5.7381 H   0  0  0  0  0  0
   -1.4382    3.4700    6.3473 H   0  0  0  0  0  0
   -0.8310    2.5754   10.3671 H   0  0  0  0  0  0
   -3.3505    6.1992    8.6570 H   0  0  0  0  0  0
   -3.8398    5.3388    7.1580 H   0  0  0  0  0  0
   -2.3664    6.3663    7.1636 H   0  0  0  0  0  0
  1  2  1  0  0  0
  1 40  1  0  0  0
  1 41  1  0  0  0
  1 42  1  0  0  0
  2  7  2  0  0  0
  2  3  1  0  0  0
  3  4  2  0  0  0
  3 43  1  0  0  0
  4  5  1  0  0  0
  4 44  1  0  0  0
  5  6  2  0  0  0
  5 21  1  0  0  0
  6  7  1  0  0  0
  6 45  1  0  0  0
  7  8  1  0  0  0
  8  9  1  0  0  0
  8 46  1  0  0  0
  9 14  2  0  0  0
  9 10  1  0  0  0
 10 11  2  0  0  0
 11 12  1  0  0  0
 11 47  1  0  0  0
 12 13  2  0  0  0
 12 48  1  0  0  0
 13 14  1  0  0  0
 13 15  1  0  0  0
 15 20  2  0  0  0
 15 16  1  0  0  0
 16 17  2  0  0  0
 16 49  1  0  0  0
 17 18  1  0  0  0
 17 50  1  0  0  0
 18 19  2  0  0  0
 18 51  1  0  0  0
 19 20  1  0  0  0
 20 52  1  0  0  0
 21 22  2  0  0  0
 21 23  1  0  0  0
 23 24  1  0  0  0
 23 53  1  0  0  0
 24 29  2  0  0  0
 24 25  1  0  0  0
 25 26  2  0  0  0
 25 54  1  0  0  0
 26 27  1  0  0  0
 26 36  1  0  0  0
 27 28  2  0  0  0
 27 55  1  0  0  0
 28 29  1  0  0  0
 28 30  1  0  0  0
 29 56  1  0  0  0
 30 34  1  0  0  0
 30 31  1  0  0  0
 31 32  2  0  0  0
 31 57  1  0  0  0
 32 33  1  0  0  0
 32 35  1  0  0  0
 33 34  2  0  0  0
 34 58  1  0  0  0
 35 59  1  0  0  0
 35 60  1  0  0  0
 35 61  1  0  0  0
 36 37  1  0  0  0
 36 38  1  0  0  0
 36 39  1  0  0  0
M  END
> <s_m_source_file>
/Users/andrea/Development/mcce-charges/epik_inhibitors/output/Nilotinib/Nilotinib-input.mol2

> <i_m_source_file_index>
1

> <r_lp_tautomer_probability>
0.999999812000036

> <r_epik_Ionization_Penalty>
  0.0669

> <r_epik_Ionization_Penalty_Charging>
  0.0666

> <r_epik_Ionization_Penalty_Neutral>
  0.0002

> <r_epik_State_Penalty>
  0.0686

> <i_epik_Tot_Q>
0

$$$$
4-methyl-~{N}-[3-(4-methylimidazol-1-yl)-5-(trifluoromethyl)phenyl]-3-[[4-(3-pyridyl)pyrimidin-2-yl]amino]benzamide
                    3D
 Structure written by MMmdl.
 62 66  0  0  1  0            999 V2000
    1.9571   -1.0275   -1.6049 C   0  0  0  0  0  0
    1.8851   -1.0363   -0.1124 C   0  0  0  0  0  0
    2.9210   -1.6309    0.6081 C   0  0  0  0  0  0
    2.8783   -1.6520    2.0022 C   0  0  0  0  0  0
    1.7997   -1.0786    2.6757 C   0  0  0  0  0  0
    0.7638   -0.4841    1.9551 C   0  0  0  0  0  0
    0.8066   -0.4630    0.5610 C   0  0  0  0  0  0
   -0.2506    0.1438   -0.1525 N   0  0  0  0  0  0
   -1.6211    0.2991    0.1258 C   0  0  0  0  0  0
   -2.3535    0.9462   -0.8007 N   0  0  0  0  0  0
   -3.6625    1.0774   -0.5016 C   0  0  0  0  0  0
   -4.2363    0.5958    0.6574 C   0  0  0  0  0  0
   -3.3783   -0.0483    1.5252 C   0  0  0  0  0  0
   -2.0603   -0.2153    1.2903 N   0  0  0  0  0  0
   -3.8531   -0.5990    2.7720 C   0  0  0  0  0  0
   -3.3415   -0.1633    3.9893 C   0  0  0  0  0  0
   -3.8190   -0.7122    5.1742 C   0  0  0  0  0  0
   -4.8008   -1.6862    5.0884 C   0  0  0  0  0  0
   -5.3220   -2.1350    3.9246 N   0  0  0  0  0  0
   -4.8332   -1.5782    2.7938 C   0  0  0  0  0  0
    1.7565   -1.1006    4.1292 C   0  0  0  0  0  0
    2.3550   -1.9642    4.7855 O   0  0  0  0  0  0
    1.0265   -0.0567    4.7185 N   0  0  0  0  0  0
    0.8314    0.2139    6.0964 C   0  0  0  0  0  0
    1.4065   -0.6166    7.0584 C   0  0  0  0  0  0
    1.2155   -0.3498    8.4141 C   0  0  0  0  0  0
    0.4494    0.7473    8.8079 C   0  0  0  0  0  0
   -0.1258    1.5777    7.8459 C   0  0  0  0  0  0
    0.0652    1.3109    6.4902 C   0  0  0  0  0  0
   -0.8854    2.6652    8.2364 N   0  0  0  0  0  0
   -1.5148    3.5736    7.4225 C   0  0  0  0  0  0
   -2.1803    4.5239    8.1604 C   0  0  0  0  0  0
   -1.9478    4.1816    9.4627 N   0  3  0  0  0  0
   -1.1656    3.0603    9.4584 C   0  0  0  0  0  0
   -2.9841    5.6787    7.7599 C   0  0  0  0  0  0
    1.8303   -1.2376    9.4424 C   0  0  0  0  0  0
    2.5519   -2.2701    8.9139 F   0  0  0  0  0  0
    2.6957   -0.5897   10.2775 F   0  0  0  0  0  0
    0.9022   -1.8193   10.2570 F   0  0  0  0  0  0
    2.8815   -1.5271   -1.9303 H   0  0  0  0  0  0
    1.9552    0.0116   -1.9659 H   0  0  0  0  0  0
    1.0876   -1.5605   -2.0171 H   0  0  0  0  0  0
    3.7656   -2.0799    0.0924 H   0  0  0  0  0  0
    3.6922   -2.1165    2.5532 H   0  0  0  0  0  0
   -0.0771   -0.0365    2.4806 H   0  0  0  0  0  0
   -0.0573    0.6133   -1.1283 H   0  0  0  0  0  0
   -4.2577    1.5979   -1.2444 H   0  0  0  0  0  0
   -5.2927    0.7225    0.8587 H   0  0  0  0  0  0
   -2.5712    0.6028    4.0298 H   0  0  0  0  0  0
   -3.4348   -0.3891    6.1348 H   0  0  0  0  0  0
   -5.2068   -2.1456    5.9840 H   0  0  0  0  0  0
   -5.2729   -1.9622    1.8776 H   0  0  0  0  0  0
    0.5146    0.6825    4.0848 H   0  0  0  0  0  0
    2.0051   -1.4721    6.7533 H   0  0  0  0  0  0
    0.3025    0.9520    9.8664 H   0  0  0  0  0  0
   -0.3819    1.9581    5.7381 H   0  0  0  0  0  0
   -1.4382    3.4700    6.3473 H   0  0  0  0  0  0
   -0.8310    2.5754   10.3671 H   0  0  0  0  0  0
   -3.3505    6.1992    8.6570 H   0  0  0  0  0  0
   -3.8398    5.3388    7.1580 H   0  0  0  0  0  0
   -2.3664    6.3663    7.1636 H   0  0  0  0  0  0
   -2.3746    4.7878   10.2753 H   0  0  0  0  0  0
  1  2  1  0  0  0
  1 40  1  0  0  0
  1 41  1  0  0  0
  1 42  1  0  0  0
  2  7  2  0  0  0
  2  3  1  0  0  0
  3  4  2  0  0  0
  3 43  1  0  0  0
  4  5  1  0  0  0
  4 44  1  0  0  0
  5  6  2  0  0  0
  5 21  1  0  0  0
  6  7  1  0  0  0
  6 45  1  0  0  0
  7  8  1  0  0  0
  8  9  1  0  0  0
  8 46  1  0  0  0
  9 14  2  0  0  0
  9 10  1  0  0  0
 10 11  2  0  0  0
 11 12  1  0  0  0
 11 47  1  0  0  0
 12 13  2  0  0  0
 12 48  1  0  0  0
 13 14  1  0  0  0
 13 15  1  0  0  0
 15 20  2  0  0  0
 15 16  1  0  0  0
 16 17  2  0  0  0
 16 49  1  0  0  0
 17 18  1  0  0  0
 17 50  1  0  0  0
 18 19  2  0  0  0
 18 51  1  0  0  0
 19 20  1  0  0  0
 20 52  1  0  0  0
 21 22  2  0  0  0
 21 23  1  0  0  0
 23 24  1  0  0  0
 23 53  1  0  0  0
 24 29  2  0  0  0
 24 25  1  0  0  0
 25 26  2  0  0  0
 25 54  1  0  0  0
 26 27  1  0  0  0
 26 36  1  0  0  0
 27 28  2  0  0  0
 27 55  1  0  0  0
 28 29  1  0  0  0
 28 30  1  0  0  0
 29 56  1  0  0  0
 30 34  1  0  0  0
 30 31  1  0  0  0
 31 32  2  0  0  0
 31 57  1  0  0  0
 32 33  1  0  0  0
 32 35  1  0  0  0
 33 34  2  0  0  0
 33 62  1  0  0  0
 34 58  1  0  0  0
 35 59  1  0  0  0
 35 60  1  0  0  0
 35 61  1  0  0  0
 36 37  1  0  0  0
 36 38  1  0  0  0
 36 39  1  0  0  0
M  CHG  1  33   1
M  END
> <s_m_source_file>
/Users/andrea/Development/mcce-charges/epik_inhibitors/output/Nilotinib/Nilotinib-input.mol2

> <i_m_source_file_index>
1

> <r_lp_tautomer_probability>
0.999999812000036

> <r_epik_Ionization_Penalty>
  1.3279

> <r_epik_Ionization_Penalty_Charging>
  0.0000

> <r_epik_Ionization_Penalty_Neutral>
  1.3279

> <r_epik_State_Penalty>
  1.3130

> <i_epik_Tot_Q>
1

$$$$
4-methyl-~{N}-[3-(4-methylimidazol-1-yl)-5-(trifluoromethyl)phenyl]-3-[[4-(3-pyridyl)pyrimidin-2-yl]amino]benzamide
                    3D
 Structure written by MMmdl.
 62 66  0  0  1  0            999 V2000
    1.9571   -1.0275   -1.6049 C   0  0  0  0  0  0
    1.8851   -1.0363   -0.1124 C   0  0  0  0  0  0
    2.9210   -1.6309    0.6081 C   0  0  0  0  0  0
    2.8783   -1.6520    2.0022 C   0  0  0  0  0  0
    1.7997   -1.0786    2.6757 C   0  0  0  0  0  0
    0.7638   -0.4841    1.9551 C   0  0  0  0  0  0
    0.8066   -0.4630    0.5610 C   0  0  0  0  0  0
   -0.2506    0.1438   -0.1525 N   0  0  0  0  0  0
   -1.6211    0.2991    0.1258 C   0  0  0  0  0  0
   -2.3535    0.9462   -0.8007 N   0  0  0  0  0  0
   -3.6625    1.0774   -0.5016 C   0  0  0  0  0  0
   -4.2363    0.5958    0.6574 C   0  0  0  0  0  0
   -3.3783   -0.0483    1.5252 C   0  0  0  0  0  0
   -2.0603   -0.2153    1.2903 N   0  0  0  0  0  0
   -3.8531   -0.5990    2.7720 C   0  0  0  0  0  0
   -3.3415   -0.1633    3.9893 C   0  0  0  0  0  0
   -3.8190   -0.7122    5.1742 C   0  0  0  0  0  0
   -4.8008   -1.6862    5.0884 C   0  0  0  0  0  0
   -5.3220   -2.1350    3.9246 N   0  3  0  0  0  0
   -4.8332   -1.5782    2.7938 C   0  0  0  0  0  0
    1.7565   -1.1006    4.1292 C   0  0  0  0  0  0
    2.3550   -1.9642    4.7855 O   0  0  0  0  0  0
    1.0265   -0.0567    4.7185 N   0  0  0  0  0  0
    0.8314    0.2139    6.0964 C   0  0  0  0  0  0
    1.4065   -0.6166    7.0584 C   0  0  0  0  0  0
    1.2155   -0.3498    8.4141 C   0  0  0  0  0  0
    0.4494    0.7473    8.8079 C   0  0  0  0  0  0
   -0.1258    1.5777    7.8459 C   0  0  0  0  0  0
    0.0652    1.3109    6.4902 C   0  0  0  0  0  0
   -0.8854    2.6652    8.2364 N   0  0  0  0  0  0
   -1.5148    3.5736    7.4225 C   0  0  0  0  0  0
   -2.1803    4.5239    8.1604 C   0  0  0  0  0  0
   -1.9478    4.1816    9.4627 N   0  0  0  0  0  0
   -1.1656    3.0603    9.4584 C   0  0  0  0  0  0
   -2.9841    5.6787    7.7599 C   0  0  0  0  0  0
    1.8303   -1.2376    9.4424 C   0  0  0  0  0  0
    2.5519   -2.2701    8.9139 F   0  0  0  0  0  0
    2.6957   -0.5897   10.2775 F   0  0  0  0  0  0
    0.9022   -1.8193   10.2570 F   0  0  0  0  0  0
    2.8815   -1.5271   -1.9303 H   0  0  0  0  0  0
    1.9552    0.0116   -1.9659 H   0  0  0  0  0  0
    1.0876   -1.5605   -2.0171 H   0  0  0  0  0  0
    3.7656   -2.0799    0.0924 H   0  0  0  0  0  0
    3.6922   -2.1165    2.5532 H   0  0  0  0  0  0
   -0.0771   -0.0365    2.4806 H   0  0  0  0  0  0
   -0.0573    0.6133   -1.1283 H   0  0  0  0  0  0
   -4.2577    1.5979   -1.2444 H   0  0  0  0  0  0
   -5.2927    0.7225    0.8587 H   0  0  0  0  0  0
   -2.5712    0.6028    4.0298 H   0  0  0  0  0  0
   -3.4348   -0.3891    6.1348 H   0  0  0  0  0  0
   -5.2068   -2.1456    5.9840 H   0  0  0  0  0  0
   -5.2729   -1.9622    1.8776 H   0  0  0  0  0  0
    0.5146    0.6825    4.0848 H   0  0  0  0  0  0
    2.0051   -1.4721    6.7533 H   0  0  0  0  0  0
    0.3025    0.9520    9.8664 H   0  0  0  0  0  0
   -0.3819    1.9581    5.7381 H   0  0  0  0  0  0
   -1.4382    3.4700    6.3473 H   0  0  0  0  0  0
   -0.8310    2.5754   10.3671 H   0  0  0  0  0  0
   -3.3505    6.1992    8.6570 H   0  0  0  0  0  0
   -3.8398    5.3388    7.1580 H   0  0  0  0  0  0
   -2.3664    6.3663    7.1636 H   0  0  0  0  0  0
   -6.1004   -2.9122    3.9340 H   0  0  0  0  0  0
  1  2  1  0  0  0
  1 40  1  0  0  0
  1 41  1  0  0  0
  1 42  1  0  0  0
  2  7  2  0  0  0
  2  3  1  0  0  0
  3  4  2  0  0  0
  3 43  1  0  0  0
  4  5  1  0  0  0
  4 44  1  0  0  0
  5  6  2  0  0  0
  5 21  1  0  0  0
  6  7  1  0  0  0
  6 45  1  0  0  0
  7  8  1  0  0  0
  8  9  1  0  0  0
  8 46  1  0  0  0
  9 14  2  0  0  0
  9 10  1  0  0  0
 10 11  2  0  0  0
 11 12  1  0  0  0
 11 47  1  0  0  0
 12 13  2  0  0  0
 12 48  1  0  0  0
 13 14  1  0  0  0
 13 15  1  0  0  0
 15 20  2  0  0  0
 15 16  1  0  0  0
 16 17  2  0  0  0
 16 49  1  0  0  0
 17 18  1  0  0  0
 17 50  1  0  0  0
 18 19  2  0  0  0
 18 51  1  0  0  0
 19 20  1  0  0  0
 19 62  1  0  0  0
 20 52  1  0  0  0
 21 22  2  0  0  0
 21 23  1  0  0  0
 23 24  1  0  0  0
 23 53  1  0  0  0
 24 29  2  0  0  0
 24 25  1  0  0  0
 25 26  2  0  0  0
 25 54  1  0  0  0
 26 27  1  0  0  0
 26 36  1  0  0  0
 27 28  2  0  0  0
 27 55  1  0  0  0
 28 29  1  0  0  0
 28 30  1  0  0  0
 29 56  1  0  0  0
 30 34  1  0  0  0
 30 31  1  0  0  0
 31 32  2  0  0  0
 31 57  1  0  0  0
 32 33  1  0  0  0
 32 35  1  0  0  0
 33 34  2  0  0  0
 34 58  1  0  0  0
 35 59  1  0  0  0
 35 60  1  0  0  0
 35 61  1  0  0  0
 36 37  1  0  0  0
 36 38  1  0  0  0
 36 39  1  0  0  0
M  CHG  1  19   1
M  END
> <s_m_source_file>
/Users/andrea/Development/mcce-charges/epik_inhibitors/output/Nilotinib/Nilotinib-input.mol2

> <i_m_source_file_index>
1

> <r_epik_Ionization_Penalty>
  4.8597

> <r_epik_Ionization_Penalty_Charging>
  4.8597

> <r_epik_Ionization_Penalty_Neutral>
  0.0000

> <r_epik_State_Penalty>
  5.1493

> <i_epik_Tot_Q>
1

$$$$
4-methyl-~{N}-[3-(4-methylimidazol-1-yl)-5-(trifluoromethyl)phenyl]-3-[[4-(3-pyridyl)pyrimidin-2-yl]amino]benzamide
                    3D
 Structure written by MMmdl.
 60 64  0  0  1  0            999 V2000
    1.9571   -1.0275   -1.6049 C   0  0  0  0  0  0
    1.8851   -1.0363   -0.1124 C   0  0  0  0  0  0
    2.9210   -1.6309    0.6081 C   0  0  0  0  0  0
    2.8783   -1.6520    2.0022 C   0  0  0  0  0  0
    1.7997   -1.0786    2.6757 C   0  0  0  0  0  0
    0.7638   -0.4841    1.9551 C   0  0  0  0  0  0
    0.8066   -0.4630    0.5610 C   0  0  0  0  0  0
   -0.2506    0.1438   -0.1525 N   0  5  0  0  0  0
   -1.6211    0.2991    0.1258 C   0  0  0  0  0  0
   -2.3535    0.9462   -0.8007 N   0  0  0  0  0  0
   -3.6625    1.0774   -0.5016 C   0  0  0  0  0  0
   -4.2363    0.5958    0.6574 C   0  0  0  0  0  0
   -3.3783   -0.0483    1.5252 C   0  0  0  0  0  0
   -2.0603   -0.2153    1.2903 N   0  0  0  0  0  0
   -3.8531   -0.5990    2.7720 C   0  0  0  0  0  0
   -3.3415   -0.1633    3.9893 C   0  0  0  0  0  0
   -3.8190   -0.7122    5.1742 C   0  0  0  0  0  0
   -4.8008   -1.6862    5.0884 C   0  0  0  0  0  0
   -5.3220   -2.1350    3.9246 N   0  0  0  0  0  0
   -4.8332   -1.5782    2.7938 C   0  0  0  0  0  0
    1.7565   -1.1006    4.1292 C   0  0  0  0  0  0
    2.3550   -1.9642    4.7855 O   0  0  0  0  0  0
    1.0265   -0.0567    4.7185 N   0  0  0  0  0  0
    0.8314    0.2139    6.0964 C   0  0  0  0  0  0
    1.4065   -0.6166    7.0584 C   0  0  0  0  0  0
    1.2155   -0.3498    8.4141 C   0  0  0  0  0  0
    0.4494    0.7473    8.8079 C   0  0  0  0  0  0
   -0.1258    1.5777    7.8459 C   0  0  0  0  0  0
    0.0652    1.3109    6.4902 C   0  0  0  0  0  0
   -0.8854    2.6652    8.2364 N   0  0  0  0  0  0
   -1.5148    3.5736    7.4225 C   0  0  0  0  0  0
   -2.1803    4.5239    8.1604 C   0  0  0  0  0  0
   -1.9478    4.1816    9.4627 N   0  0  0  0  0  0
   -1.1656    3.0603    9.4584 C   0  0  0  0  0  0
   -2.9841    5.6787    7.7599 C   0  0  0  0  0  0
    1.8303   -1.2376    9.4424 C   0  0  0  0  0  0
    2.5519   -2.2701    8.9139 F   0  0  0  0  0  0
    2.6957   -0.5897   10.2775 F   0  0  0  0  0  0
    0.9022   -1.8193   10.2570 F   0  0  0  0  0  0
    2.8815   -1.5271   -1.9303 H   0  0  0  0  0  0
    1.9552    0.0116   -1.9659 H   0  0  0  0  0  0
    1.0876   -1.5605   -2.0171 H   0  0  0  0  0  0
    3.7656   -2.0799    0.0924 H   0  0  0  0  0  0
    3.6922   -2.1165    2.5532 H   0  0  0  0  0  0
   -0.0771   -0.0365    2.4806 H   0  0  0  0  0  0
   -4.2577    1.5979   -1.2444 H   0  0  0  0  0  0
   -5.2927    0.7225    0.8587 H   0  0  0  0  0  0
   -2.5712    0.6028    4.0298 H   0  0  0  0  0  0
   -3.4348   -0.3891    6.1348 H   0  0  0  0  0  0
   -5.2068   -2.1456    5.9840 H   0  0  0  0  0  0
   -5.2729   -1.9622    1.8776 H   0  0  0  0  0  0
    0.5146    0.6825    4.0848 H   0  0  0  0  0  0
    2.0051   -1.4721    6.7533 H   0  0  0  0  0  0
    0.3025    0.9520    9.8664 H   0  0  0  0  0  0
   -0.3819    1.9581    5.7381 H   0  0  0  0  0  0
   -1.4382    3.4700    6.3473 H   0  0  0  0  0  0
   -0.8310    2.5754   10.3671 H   0  0  0  0  0  0
   -3.3505    6.1992    8.6570 H   0  0  0  0  0  0
   -3.8398    5.3388    7.1580 H   0  0  0  0  0  0
   -2.3664    6.3663    7.1636 H   0  0  0  0  0  0
  1  2  1  0  0  0
  1 40  1  0  0  0
  1 41  1  0  0  0
  1 42  1  0  0  0
  2  7  2  0  0  0
  2  3  1  0  0  0
  3  4  2  0  0  0
  3 43  1  0  0  0
  4  5  1  0  0  0
  4 44  1  0  0  0
  5  6  2  0  0  0
  5 21  1  0  0  0
  6  7  1  0  0  0
  6 45  1  0  0  0
  7  8  1  0  0  0
  8  9  1  0  0  0
  9 14  2  0  0  0
  9 10  1  0  0  0
 10 11  2  0  0  0
 11 12  1  0  0  0
 11 46  1  0  0  0
 12 13  2  0  0  0
 12 47  1  0  0  0
 13 14  1  0  0  0
 13 15  1  0  0  0
 15 20  2  0  0  0
 15 16  1  0  0  0
 16 17  2  0  0  0
 16 48  1  0  0  0
 17 18  1  0  0  0
 17 49  1  0  0  0
 18 19  2  0  0  0
 18 50  1  0  0  0
 19 20  1  0  0  0
 20 51  1  0  0  0
 21 22  2  0  0  0
 21 23  1  0  0  0
 23 24  1  0  0  0
 23 52  1  0  0  0
 24 29  2  0  0  0
 24 25  1  0  0  0
 25 26  2  0  0  0
 25 53  1  0  0  0
 26 27  1  0  0  0
 26 36  1  0  0  0
 27 28  2  0  0  0
 27 54  1  0  0  0
 28 29  1  0  0  0
 28 30  1  0  0  0
 29 55  1  0  0  0
 30 34  1  0  0  0
 30 31  1  0  0  0
 31 32  2  0  0  0
 31 56  1  0  0  0
 32 33  1  0  0  0
 32 35  1  0  0  0
 33 34  2  0  0  0
 34 57  1  0  0  0
 35 58  1  0  0  0
 35 59  1  0  0  0
 35 60  1  0  0  0
 36 37  1  0  0  0
 36 38  1  0  0  0
 36 39  1  0  0  0
M  CHG  1   8  -1
M  END
> <s_m_source_file>
/Users/andrea/Development/mcce-charges/epik_inhibitors/output/Nilotinib/Nilotinib-input.mol2

> <i_m_source_file_index>
1

> <r_epik_Ionization_Penalty>
  8.6188

> <r_epik_Ionization_Penalty_Charging>
  8.6185

> <r_epik_Ionization_Penalty_Neutral>
  0.0003

> <r_epik_State_Penalty>
  5.5210

> <i_epik_Tot_Q>
-1

$$$$
4-methyl-~{N}-[3-(4-methylimidazol-1-yl)-5-(trifluoromethyl)phenyl]-3-[[4-(3-pyridyl)pyrimidin-2-yl]amino]benzamide
                    3D
 Structure written by MMmdl.
 60 64  0  0  1  0            999 V2000
    1.9571   -1.0275   -1.6049 C   0  0  0  0  0  0
    1.8851   -1.0363   -0.1124 C   0  0  0  0  0  0
    2.9210   -1.6309    0.6081 C   0  0  0  0  0  0
    2.8783   -1.6520    2.0022 C   0  0  0  0  0  0
    1.7997   -1.0786    2.6757 C   0  0  0  0  0  0
    0.7638   -0.4841    1.9551 C   0  0  0  0  0  0
    0.8066   -0.4630    0.5610 C   0  0  0  0  0  0
   -0.2506    0.1438   -0.1525 N   0  0  0  0  0  0
   -1.6211    0.2991    0.1258 C   0  0  0  0  0  0
   -2.3535    0.9462   -0.8007 N   0  0  0  0  0  0
   -3.6625    1.0774   -0.5016 C   0  0  0  0  0  0
   -4.2363    0.5958    0.6574 C   0  0  0  0  0  0
   -3.3783   -0.0483    1.5252 C   0  0  0  0  0  0
   -2.0603   -0.2153    1.2903 N   0  0  0  0  0  0
   -3.8531   -0.5990    2.7720 C   0  0  0  0  0  0
   -3.3415   -0.1633    3.9893 C   0  0  0  0  0  0
   -3.8190   -0.7122    5.1742 C   0  0  0  0  0  0
   -4.8008   -1.6862    5.0884 C   0  0  0  0  0  0
   -5.3220   -2.1350    3.9246 N   0  0  0  0  0  0
   -4.8332   -1.5782    2.7938 C   0  0  0  0  0  0
    1.7565   -1.1006    4.1292 C   0  0  0  0  0  0
    2.3550   -1.9642    4.7855 O   0  5  0  0  0  0
    1.0265   -0.0567    4.7185 N   0  0  0  0  0  0
    0.8314    0.2139    6.0964 C   0  0  0  0  0  0
    1.4065   -0.6166    7.0584 C   0  0  0  0  0  0
    1.2155   -0.3498    8.4141 C   0  0  0  0  0  0
    0.4494    0.7473    8.8079 C   0  0  0  0  0  0
   -0.1258    1.5777    7.8459 C   0  0  0  0  0  0
    0.0652    1.3109    6.4902 C   0  0  0  0  0  0
   -0.8854    2.6652    8.2364 N   0  0  0  0  0  0
   -1.5148    3.5736    7.4225 C   0  0  0  0  0  0
   -2.1803    4.5239    8.1604 C   0  0  0  0  0  0
   -1.9478    4.1816    9.4627 N   0  0  0  0  0  0
   -1.1656    3.0603    9.4584 C   0  0  0  0  0  0
   -2.9841    5.6787    7.7599 C   0  0  0  0  0  0
    1.8303   -1.2376    9.4424 C   0  0  0  0  0  0
    2.5519   -2.2701    8.9139 F   0  0  0  0  0  0
    2.6957   -0.5897   10.2775 F   0  0  0  0  0  0
    0.9022   -1.8193   10.2570 F   0  0  0  0  0  0
    2.8815   -1.5271   -1.9303 H   0  0  0  0  0  0
    1.9552    0.0116   -1.9659 H   0  0  0  0  0  0
    1.0876   -1.5605   -2.0171 H   0  0  0  0  0  0
    3.7656   -2.0799    0.0924 H   0  0  0  0  0  0
    3.6922   -2.1165    2.5532 H   0  0  0  0  0  0
   -0.0771   -0.0365    2.4806 H   0  0  0  0  0  0
   -0.0573    0.6133   -1.1283 H   0  0  0  0  0  0
   -4.2761    1.5458   -1.1373 H   0  0  0  0  0  0
   -5.2049    0.6877    0.8883 H   0  0  0  0  0  0
   -2.5712    0.6028    4.0298 H   0  0  0  0  0  0
   -3.4348   -0.3891    6.1348 H   0  0  0  0  0  0
   -5.2068   -2.1456    5.9840 H   0  0  0  0  0  0
   -5.2729   -1.9622    1.8776 H   0  0  0  0  0  0
    2.0051   -1.4721    6.7533 H   0  0  0  0  0  0
    0.3025    0.9520    9.8664 H   0  0  0  0  0  0
   -0.3819    1.9581    5.7381 H   0  0  0  0  0  0
   -1.5366    3.6107    6.4234 H   0  0  0  0  0  0
   -0.8803    2.6464   10.3228 H   0  0  0  0  0  0
   -3.3505    6.1992    8.6570 H   0  0  0  0  0  0
   -3.8398    5.3388    7.1580 H   0  0  0  0  0  0
   -2.3664    6.3663    7.1636 H   0  0  0  0  0  0
  1  2  1  0  0  0
  1 40  1  0  0  0
  1 41  1  0  0  0
  1 42  1  0  0  0
  2  7  2  0  0  0
  2  3  1  0  0  0
  3  4  2  0  0  0
  3 43  1  0  0  0
  4  5  1  0  0  0
  4 44  1  0  0  0
  5  6  2  0  0  0
  5 21  1  0  0  0
  6  7  1  0  0  0
  6 45  1  0  0  0
  7  8  1  0  0  0
  8  9  1  0  0  0
  8 46  1  0  0  0
  9 14  2  0  0  0
  9 10  1  0  0  0
 10 11  2  0  0  0
 11 12  1  0  0  0
 11 47  1  0  0  0
 12 13  2  0  0  0
 12 48  1  0  0  0
 13 14  1  0  0  0
 13 15  1  0  0  0
 15 20  2  0  0  0
 15 16  1  0  0  0
 16 17  2  0  0  0
 16 49  1  0  0  0
 17 18  1  0  0  0
 17 50  1  0  0  0
 18 19  2  0  0  0
 18 51  1  0  0  0
 19 20  1  0  0  0
 20 52  1  0  0  0
 21 22  1  0  0  0
 21 23  2  0  0  0
 23 24  1  0  0  0
 24 29  2  0  0  0
 24 25  1  0  0  0
 25 26  2  0  0  0
 25 53  1  0  0  0
 26 27  1  0  0  0
 26 36  1  0  0  0
 27 28  2  0  0  0
 27 54  1  0  0  0
 28 29  1  0  0  0
 28 30  1  0  0  0
 29 55  1  0  0  0
 30 34  1  0  0  0
 30 31  1  0  0  0
 31 32  2  0  0  0
 31 56  1  0  0  0
 32 33  1  0  0  0
 32 35  1  0  0  0
 33 34  2  0  0  0
 34 57  1  0  0  0
 35 58  1  0  0  0
 35 59  1  0  0  0
 35 60  1  0  0  0
 36 37  1  0  0  0
 36 38  1  0  0  0
 36 39  1  0  0  0
M  CHG  1  22  -1
M  END
> <s_m_source_file>
/Users/andrea/Development/mcce-charges/epik_inhibitors/output/Nilotinib/Nilotinib-input.mol2

> <i_m_source_file_index>
1

> <r_lp_tautomer_probability>
0.999999812000036

> <r_epik_Ionization_Penalty>
  6.1132

> <r_epik_Ionization_Penalty_Charging>
  6.1130

> <r_epik_Ionization_Penalty_Neutral>
  0.0002

> <r_epik_State_Penalty>
  6.4325

> <i_epik_Tot_Q>
-1

$$$$
4-methyl-~{N}-[3-(4-methylimidazol-1-yl)-5-(trifluoromethyl)phenyl]-3-[[4-(3-pyridyl)pyrimidin-2-yl]amino]benzamide
                    3D
 Structure written by MMmdl.
 63 67  0  0  1  0            999 V2000
    1.9571   -1.0275   -1.6049 C   0  0  0  0  0  0
    1.8851   -1.0363   -0.1124 C   0  0  0  0  0  0
    2.9210   -1.6309    0.6081 C   0  0  0  0  0  0
    2.8783   -1.6520    2.0022 C   0  0  0  0  0  0
    1.7997   -1.0786    2.6757 C   0  0  0  0  0  0
    0.7638   -0.4841    1.9551 C   0  0  0  0  0  0
    0.8066   -0.4630    0.5610 C   0  0  0  0  0  0
   -0.2506    0.1438   -0.1525 N   0  0  0  0  0  0
   -1.6211    0.2991    0.1258 C   0  0  0  0  0  0
   -2.3535    0.9462   -0.8007 N   0  0  0  0  0  0
   -3.6625    1.0774   -0.5016 C   0  0  0  0  0  0
   -4.2363    0.5958    0.6574 C   0  0  0  0  0  0
   -3.3783   -0.0483    1.5252 C   0  0  0  0  0  0
   -2.0603   -0.2153    1.2903 N   0  0  0  0  0  0
   -3.8531   -0.5990    2.7720 C   0  0  0  0  0  0
   -3.3415   -0.1633    3.9893 C   0  0  0  0  0  0
   -3.8190   -0.7122    5.1742 C   0  0  0  0  0  0
   -4.8008   -1.6862    5.0884 C   0  0  0  0  0  0
   -5.3220   -2.1350    3.9246 N   0  3  0  0  0  0
   -4.8332   -1.5782    2.7938 C   0  0  0  0  0  0
    1.7565   -1.1006    4.1292 C   0  0  0  0  0  0
    2.3550   -1.9642    4.7855 O   0  0  0  0  0  0
    1.0265   -0.0567    4.7185 N   0  0  0  0  0  0
    0.8314    0.2139    6.0964 C   0  0  0  0  0  0
    1.4065   -0.6166    7.0584 C   0  0  0  0  0  0
    1.2155   -0.3498    8.4141 C   0  0  0  0  0  0
    0.4494    0.7473    8.8079 C   0  0  0  0  0  0
   -0.1258    1.5777    7.8459 C   0  0  0  0  0  0
    0.0652    1.3109    6.4902 C   0  0  0  0  0  0
   -0.8854    2.6652    8.2364 N   0  0  0  0  0  0
   -1.5148    3.5736    7.4225 C   0  0  0  0  0  0
   -2.1803    4.5239    8.1604 C   0  0  0  0  0  0
   -1.9478    4.1816    9.4627 N   0  3  0  0  0  0
   -1.1656    3.0603    9.4584 C   0  0  0  0  0  0
   -2.9841    5.6787    7.7599 C   0  0  0  0  0  0
    1.8303   -1.2376    9.4424 C   0  0  0  0  0  0
    2.5519   -2.2701    8.9139 F   0  0  0  0  0  0
    2.6957   -0.5897   10.2775 F   0  0  0  0  0  0
    0.9022   -1.8193   10.2570 F   0  0  0  0  0  0
    2.8815   -1.5271   -1.9303 H   0  0  0  0  0  0
    1.9552    0.0116   -1.9659 H   0  0  0  0  0  0
    1.0876   -1.5605   -2.0171 H   0  0  0  0  0  0
    3.7656   -2.0799    0.0924 H   0  0  0  0  0  0
    3.6922   -2.1165    2.5532 H   0  0  0  0  0  0
   -0.0771   -0.0365    2.4806 H   0  0  0  0  0  0
   -0.0573    0.6133   -1.1283 H   0  0  0  0  0  0
   -4.2577    1.5979   -1.2444 H   0  0  0  0  0  0
   -5.2927    0.7225    0.8587 H   0  0  0  0  0  0
   -2.5712    0.6028    4.0298 H   0  0  0  0  0  0
   -3.4348   -0.3891    6.1348 H   0  0  0  0  0  0
   -5.2068   -2.1456    5.9840 H   0  0  0  0  0  0
   -5.2729   -1.9622    1.8776 H   0  0  0  0  0  0
    0.5146    0.6825    4.0848 H   0  0  0  0  0  0
    2.0051   -1.4721    6.7533 H   0  0  0  0  0  0
    0.3025    0.9520    9.8664 H   0  0  0  0  0  0
   -0.3819    1.9581    5.7381 H   0  0  0  0  0  0
   -1.4382    3.4700    6.3473 H   0  0  0  0  0  0
   -0.8310    2.5754   10.3671 H   0  0  0  0  0  0
   -3.3505    6.1992    8.6570 H   0  0  0  0  0  0
   -3.8398    5.3388    7.1580 H   0  0  0  0  0  0
   -2.3664    6.3663    7.1636 H   0  0  0  0  0  0
   -2.3746    4.7878   10.2753 H   0  0  0  0  0  0
   -6.1004   -2.9122    3.9340 H   0  0  0  0  0  0
  1  2  1  0  0  0
  1 40  1  0  0  0
  1 41  1  0  0  0
  1 42  1  0  0  0
  2  7  2  0  0  0
  2  3  1  0  0  0
  3  4  2  0  0  0
  3 43  1  0  0  0
  4  5  1  0  0  0
  4 44  1  0  0  0
  5  6  2  0  0  0
  5 21  1  0  0  0
  6  7  1  0  0  0
  6 45  1  0  0  0
  7  8  1  0  0  0
  8  9  1  0  0  0
  8 46  1  0  0  0
  9 14  2  0  0  0
  9 10  1  0  0  0
 10 11  2  0  0  0
 11 12  1  0  0  0
 11 47  1  0  0  0
 12 13  2  0  0  0
 12 48  1  0  0  0
 13 14  1  0  0  0
 13 15  1  0  0  0
 15 20  2  0  0  0
 15 16  1  0  0  0
 16 17  2  0  0  0
 16 49  1  0  0  0
 17 18  1  0  0  0
 17 50  1  0  0  0
 18 19  2  0  0  0
 18 51  1  0  0  0
 19 20  1  0  0  0
 19 63  1  0  0  0
 20 52  1  0  0  0
 21 22  2  0  0  0
 21 23  1  0  0  0
 23 24  1  0  0  0
 23 53  1  0  0  0
 24 29  2  0  0  0
 24 25  1  0  0  0
 25 26  2  0  0  0
 25 54  1  0  0  0
 26 27  1  0  0  0
 26 36  1  0  0  0
 27 28  2  0  0  0
 27 55  1  0  0  0
 28 29  1  0  0  0
 28 30  1  0  0  0
 29 56  1  0  0  0
 30 34  1  0  0  0
 30 31  1  0  0  0
 31 32  2  0  0  0
 31 57  1  0  0  0
 32 33  1  0  0  0
 32 35  1  0  0  0
 33 34  2  0  0  0
 33 62  1  0  0  0
 34 58  1  0  0  0
 35 59  1  0  0  0
 35 60  1  0  0  0
 35 61  1  0  0  0
 36 37  1  0  0  0
 36 38  1  0  0  0
 36 39  1  0  0  0
M  CHG  2  19   1  33   1
M  END
> <s_m_source_file>
/Users/andrea/Development/mcce-charges/epik_inhibitors/output/Nilotinib/Nilotinib-input.mol2

> <i_m_source_file_index>
1

> <r_lp_tautomer_probability>
0.999999812000036

> <r_epik_Ionization_Penalty>
  6.1207

> <r_epik_Ionization_Penalty_Charging>
  4.7931

> <r_epik_Ionization_Penalty_Neutral>
  1.3277

> <r_epik_State_Penalty>
  6.4611

> <i_epik_Tot_Q>
2

$$$$
4-methyl-~{N}-[3-(4-methylimidazol-1-yl)-5-(trifluoromethyl)phenyl]-3-[[4-(3-pyridyl)pyrimidin-2-yl]amino]benzamide
                    3D
 Structure written by MMmdl.
 61 65  0  0  1  0            999 V2000
    1.9571   -1.0275   -1.6049 C   0  0  0  0  0  0
    1.8851   -1.0363   -0.1124 C   0  0  0  0  0  0
    2.9210   -1.6309    0.6081 C   0  0  0  0  0  0
    2.8783   -1.6520    2.0022 C   0  0  0  0  0  0
    1.7997   -1.0786    2.6757 C   0  0  0  0  0  0
    0.7638   -0.4841    1.9551 C   0  0  0  0  0  0
    0.8066   -0.4630    0.5610 C   0  0  0  0  0  0
   -0.2506    0.1438   -0.1525 N   0  5  0  0  0  0
   -1.6211    0.2991    0.1258 C   0  0  0  0  0  0
   -2.3535    0.9462   -0.8007 N   0  0  0  0  0  0
   -3.6625    1.0774   -0.5016 C   0  0  0  0  0  0
   -4.2363    0.5958    0.6574 C   0  0  0  0  0  0
   -3.3783   -0.0483    1.5252 C   0  0  0  0  0  0
   -2.0603   -0.2153    1.2903 N   0  0  0  0  0  0
   -3.8531   -0.5990    2.7720 C   0  0  0  0  0  0
   -3.3415   -0.1633    3.9893 C   0  0  0  0  0  0
   -3.8190   -0.7122    5.1742 C   0  0  0  0  0  0
   -4.8008   -1.6862    5.0884 C   0  0  0  0  0  0
   -5.3220   -2.1350    3.9246 N   0  0  0  0  0  0
   -4.8332   -1.5782    2.7938 C   0  0  0  0  0  0
    1.7565   -1.1006    4.1292 C   0  0  0  0  0  0
    2.3550   -1.9642    4.7855 O   0  0  0  0  0  0
    1.0265   -0.0567    4.7185 N   0  0  0  0  0  0
    0.8314    0.2139    6.0964 C   0  0  0  0  0  0
    1.4065   -0.6166    7.0584 C   0  0  0  0  0  0
    1.2155   -0.3498    8.4141 C   0  0  0  0  0  0
    0.4494    0.7473    8.8079 C   0  0  0  0  0  0
   -0.1258    1.5777    7.8459 C   0  0  0  0  0  0
    0.0652    1.3109    6.4902 C   0  0  0  0  0  0
   -0.8854    2.6652    8.2364 N   0  0  0  0  0  0
   -1.5148    3.5736    7.4225 C   0  0  0  0  0  0
   -2.1803    4.5239    8.1604 C   0  0  0  0  0  0
   -1.9478    4.1816    9.4627 N   0  3  0  0  0  0
   -1.1656    3.0603    9.4584 C   0  0  0  0  0  0
   -2.9841    5.6787    7.7599 C   0  0  0  0  0  0
    1.8303   -1.2376    9.4424 C   0  0  0  0  0  0
    2.5519   -2.2701    8.9139 F   0  0  0  0  0  0
    2.6957   -0.5897   10.2775 F   0  0  0  0  0  0
    0.9022   -1.8193   10.2570 F   0  0  0  0  0  0
    2.8815   -1.5271   -1.9303 H   0  0  0  0  0  0
    1.9552    0.0116   -1.9659 H   0  0  0  0  0  0
    1.0876   -1.5605   -2.0171 H   0  0  0  0  0  0
    3.7656   -2.0799    0.0924 H   0  0  0  0  0  0
    3.6922   -2.1165    2.5532 H   0  0  0  0  0  0
   -0.0771   -0.0365    2.4806 H   0  0  0  0  0  0
   -4.2577    1.5979   -1.2444 H   0  0  0  0  0  0
   -5.2927    0.7225    0.8587 H   0  0  0  0  0  0
   -2.5712    0.6028    4.0298 H   0  0  0  0  0  0
   -3.4348   -0.3891    6.1348 H   0  0  0  0  0  0
   -5.2068   -2.1456    5.9840 H   0  0  0  0  0  0
   -5.2729   -1.9622    1.8776 H   0  0  0  0  0  0
    0.5146    0.6825    4.0848 H   0  0  0  0  0  0
    2.0051   -1.4721    6.7533 H   0  0  0  0  0  0
    0.3025    0.9520    9.8664 H   0  0  0  0  0  0
   -0.3819    1.9581    5.7381 H   0  0  0  0  0  0
   -1.4382    3.4700    6.3473 H   0  0  0  0  0  0
   -0.8310    2.5754   10.3671 H   0  0  0  0  0  0
   -3.3505    6.1992    8.6570 H   0  0  0  0  0  0
   -3.8398    5.3388    7.1580 H   0  0  0  0  0  0
   -2.3664    6.3663    7.1636 H   0  0  0  0  0  0
   -2.3746    4.7878   10.2753 H   0  0  0  0  0  0
  1  2  1  0  0  0
  1 40  1  0  0  0
  1 41  1  0  0  0
  1 42  1  0  0  0
  2  7  2  0  0  0
  2  3  1  0  0  0
  3  4  2  0  0  0
  3 43  1  0  0  0
  4  5  1  0  0  0
  4 44  1  0  0  0
  5  6  2  0  0  0
  5 21  1  0  0  0
  6  7  1  0  0  0
  6 45  1  0  0  0
  7  8  1  0  0  0
  8  9  1  0  0  0
  9 14  2  0  0  0
  9 10  1  0  0  0
 10 11  2  0  0  0
 11 12  1  0  0  0
 11 46  1  0  0  0
 12 13  2  0  0  0
 12 47  1  0  0  0
 13 14  1  0  0  0
 13 15  1  0  0  0
 15 20  2  0  0  0
 15 16  1  0  0  0
 16 17  2  0  0  0
 16 48  1  0  0  0
 17 18  1  0  0  0
 17 49  1  0  0  0
 18 19  2  0  0  0
 18 50  1  0  0  0
 19 20  1  0  0  0
 20 51  1  0  0  0
 21 22  2  0  0  0
 21 23  1  0  0  0
 23 24  1  0  0  0
 23 52  1  0  0  0
 24 29  2  0  0  0
 24 25  1  0  0  0
 25 26  2  0  0  0
 25 53  1  0  0  0
 26 27  1  0  0  0
 26 36  1  0  0  0
 27 28  2  0  0  0
 27 54  1  0  0  0
 28 29  1  0  0  0
 28 30  1  0  0  0
 29 55  1  0  0  0
 30 34  1  0  0  0
 30 31  1  0  0  0
 31 32  2  0  0  0
 31 56  1  0  0  0
 32 33  1  0  0  0
 32 35  1  0  0  0
 33 34  2  0  0  0
 33 61  1  0  0  0
 34 57  1  0  0  0
 35 58  1  0  0  0
 35 59  1  0  0  0
 35 60  1  0  0  0
 36 37  1  0  0  0
 36 38  1  0  0  0
 36 39  1  0  0  0
M  CHG  2   8  -1  33   1
M  END
> <s_m_source_file>
/Users/andrea/Development/mcce-charges/epik_inhibitors/output/Nilotinib/Nilotinib-input.mol2

> <i_m_source_file_index>
1

> <r_epik_Ionization_Penalty>
  9.8798

> <r_epik_Ionization_Penalty_Charging>
  8.5519

> <r_epik_Ionization_Penalty_Neutral>
  1.3279

> <r_epik_State_Penalty>
  7.0801

> <i_epik_Tot_Q>
0

$$$$
4-methyl-~{N}-[3-(4-methylimidazol-1-yl)-5-(trifluoromethyl)phenyl]-3-[[4-(3-pyridyl)pyrimidin-2-yl]amino]benzamide
                    3D
 Structure written by MMmdl.
 61 65  0  0  1  0            999 V2000
    1.9571   -1.0275   -1.6049 C   0  0  0  0  0  0
    1.8851   -1.0363   -0.1124 C   0  0  0  0  0  0
    2.9210   -1.6309    0.6081 C   0  0  0  0  0  0
    2.8783   -1.6520    2.0022 C   0  0  0  0  0  0
    1.7997   -1.0786    2.6757 C   0  0  0  0  0  0
    0.7638   -0.4841    1.9551 C   0  0  0  0  0  0
    0.8066   -0.4630    0.5610 C   0  0  0  0  0  0
   -0.2506    0.1438   -0.1525 N   0  0  0  0  0  0
   -1.6211    0.2991    0.1258 C   0  0  0  0  0  0
   -2.3535    0.9462   -0.8007 N   0  0  0  0  0  0
   -3.6625    1.0774   -0.5016 C   0  0  0  0  0  0
   -4.2363    0.5958    0.6574 C   0  0  0  0  0  0
   -3.3783   -0.0483    1.5252 C   0  0  0  0  0  0
   -2.0603   -0.2153    1.2903 N   0  0  0  0  0  0
   -3.8531   -0.5990    2.7720 C   0  0  0  0  0  0
   -3.3415   -0.1633    3.9893 C   0  0  0  0  0  0
   -3.8190   -0.7122    5.1742 C   0  0  0  0  0  0
   -4.8008   -1.6862    5.0884 C   0  0  0  0  0  0
   -5.3220   -2.1350    3.9246 N   0  0  0  0  0  0
   -4.8332   -1.5782    2.7938 C   0  0  0  0  0  0
    1.7565   -1.1006    4.1292 C   0  0  0  0  0  0
    2.3550   -1.9642    4.7855 O   0  5  0  0  0  0
    1.0265   -0.0567    4.7185 N   0  0  0  0  0  0
    0.8314    0.2139    6.0964 C   0  0  0  0  0  0
    1.4065   -0.6166    7.0584 C   0  0  0  0  0  0
    1.2155   -0.3498    8.4141 C   0  0  0  0  0  0
    0.4494    0.7473    8.8079 C   0  0  0  0  0  0
   -0.1258    1.5777    7.8459 C   0  0  0  0  0  0
    0.0652    1.3109    6.4902 C   0  0  0  0  0  0
   -0.8854    2.6652    8.2364 N   0  0  0  0  0  0
   -1.5148    3.5736    7.4225 C   0  0  0  0  0  0
   -2.1803    4.5239    8.1604 C   0  0  0  0  0  0
   -1.9478    4.1816    9.4627 N   0  3  0  0  0  0
   -1.1656    3.0603    9.4584 C   0  0  0  0  0  0
   -2.9841    5.6787    7.7599 C   0  0  0  0  0  0
    1.8303   -1.2376    9.4424 C   0  0  0  0  0  0
    2.5519   -2.2701    8.9139 F   0  0  0  0  0  0
    2.6957   -0.5897   10.2775 F   0  0  0  0  0  0
    0.9022   -1.8193   10.2570 F   0  0  0  0  0  0
    2.8815   -1.5271   -1.9303 H   0  0  0  0  0  0
    1.9552    0.0116   -1.9659 H   0  0  0  0  0  0
    1.0876   -1.5605   -2.0171 H   0  0  0  0  0  0
    3.7656   -2.0799    0.0924 H   0  0  0  0  0  0
    3.6922   -2.1165    2.5532 H   0  0  0  0  0  0
   -0.0771   -0.0365    2.4806 H   0  0  0  0  0  0
   -0.0573    0.6133   -1.1283 H   0  0  0  0  0  0
   -4.2761    1.5458   -1.1373 H   0  0  0  0  0  0
   -5.2049    0.6877    0.8883 H   0  0  0  0  0  0
   -2.5712    0.6028    4.0298 H   0  0  0  0  0  0
   -3.4348   -0.3891    6.1348 H   0  0  0  0  0  0
   -5.2068   -2.1456    5.9840 H   0  0  0  0  0  0
   -5.2729   -1.9622    1.8776 H   0  0  0  0  0  0
    2.0051   -1.4721    6.7533 H   0  0  0  0  0  0
    0.3025    0.9520    9.8664 H   0  0  0  0  0  0
   -0.3819    1.9581    5.7381 H   0  0  0  0  0  0
   -1.5366    3.6107    6.4234 H   0  0  0  0  0  0
   -0.8803    2.6464   10.3228 H   0  0  0  0  0  0
   -3.3505    6.1992    8.6570 H   0  0  0  0  0  0
   -3.8398    5.3388    7.1580 H   0  0  0  0  0  0
   -2.3664    6.3663    7.1636 H   0  0  0  0  0  0
   -2.3746    4.7878   10.2753 H   0  0  0  0  0  0
  1  2  1  0  0  0
  1 40  1  0  0  0
  1 41  1  0  0  0
  1 42  1  0  0  0
  2  7  2  0  0  0
  2  3  1  0  0  0
  3  4  2  0  0  0
  3 43  1  0  0  0
  4  5  1  0  0  0
  4 44  1  0  0  0
  5  6  2  0  0  0
  5 21  1  0  0  0
  6  7  1  0  0  0
  6 45  1  0  0  0
  7  8  1  0  0  0
  8  9  1  0  0  0
  8 46  1  0  0  0
  9 14  2  0  0  0
  9 10  1  0  0  0
 10 11  2  0  0  0
 11 12  1  0  0  0
 11 47  1  0  0  0
 12 13  2  0  0  0
 12 48  1  0  0  0
 13 14  1  0  0  0
 13 15  1  0  0  0
 15 20  2  0  0  0
 15 16  1  0  0  0
 16 17  2  0  0  0
 16 49  1  0  0  0
 17 18  1  0  0  0
 17 50  1  0  0  0
 18 19  2  0  0  0
 18 51  1  0  0  0
 19 20  1  0  0  0
 20 52  1  0  0  0
 21 22  1  0  0  0
 21 23  2  0  0  0
 23 24  1  0  0  0
 24 29  2  0  0  0
 24 25  1  0  0  0
 25 26  2  0  0  0
 25 53  1  0  0  0
 26 27  1  0  0  0
 26 36  1  0  0  0
 27 28  2  0  0  0
 27 54  1  0  0  0
 28 29  1  0  0  0
 28 30  1  0  0  0
 29 55  1  0  0  0
 30 34  1  0  0  0
 30 31  1  0  0  0
 31 32  2  0  0  0
 31 56  1  0  0  0
 32 33  1  0  0  0
 32 35  1  0  0  0
 33 34  2  0  0  0
 33 61  1  0  0  0
 34 57  1  0  0  0
 35 58  1  0  0  0
 35 59  1  0  0  0
 35 60  1  0  0  0
 36 37  1  0  0  0
 36 38  1  0  0  0
 36 39  1  0  0  0
M  CHG  2  22  -1  33   1
M  END
> <s_m_source_file>
/Users/andrea/Development/mcce-charges/epik_inhibitors/output/Nilotinib/Nilotinib-input.mol2

> <i_m_source_file_index>
1

> <r_epik_Ionization_Penalty>
  7.2215

> <r_epik_Ionization_Penalty_Charging>
  5.8936

> <r_epik_Ionization_Penalty_Neutral>
  1.3279

> <r_epik_State_Penalty>
  7.6900

> <i_epik_Tot_Q>
0

$$$$
4-methyl-~{N}-[3-(4-methylimidazol-1-yl)-5-(trifluoromethyl)phenyl]-3-[[4-(3-pyridyl)pyrimidin-2-yl]amino]benzamide
                    3D
 Structure written by MMmdl.
 61 65  0  0  1  0            999 V2000
    1.9571   -1.0275   -1.6049 C   0  0  0  0  0  0
    1.8851   -1.0363   -0.1124 C   0  0  0  0  0  0
    2.9210   -1.6309    0.6081 C   0  0  0  0  0  0
    2.8783   -1.6520    2.0022 C   0  0  0  0  0  0
    1.7997   -1.0786    2.6757 C   0  0  0  0  0  0
    0.7638   -0.4841    1.9551 C   0  0  0  0  0  0
    0.8066   -0.4630    0.5610 C   0  0  0  0  0  0
   -0.2506    0.1438   -0.1525 N   0  0  0  0  0  0
   -1.6211    0.2991    0.1258 C   0  0  0  0  0  0
   -2.3531    0.9480   -0.7998 N   0  0  0  0  0  0
   -3.6621    1.0791   -0.5007 C   0  0  0  0  0  0
   -4.2361    0.5966    0.6578 C   0  0  0  0  0  0
   -3.3783   -0.0483    1.5252 C   0  0  0  0  0  0
   -2.0603   -0.2153    1.2903 N   0  0  0  0  0  0
   -3.8531   -0.5990    2.7720 C   0  0  0  0  0  0
   -3.3415   -0.1633    3.9893 C   0  0  0  0  0  0
   -3.8190   -0.7122    5.1742 C   0  0  0  0  0  0
   -4.8008   -1.6862    5.0884 C   0  0  0  0  0  0
   -5.3220   -2.1350    3.9246 N   0  0  0  0  0  0
   -4.8332   -1.5782    2.7938 C   0  0  0  0  0  0
    1.7565   -1.1006    4.1292 C   0  0  0  0  0  0
    2.3550   -1.9642    4.7855 O   0  0  0  0  0  0
    1.0265   -0.0567    4.7185 N   0  0  0  0  0  0
    0.8314    0.2139    6.0964 C   0  0  0  0  0  0
    1.4065   -0.6166    7.0584 C   0  0  0  0  0  0
    1.2155   -0.3498    8.4141 C   0  0  0  0  0  0
    0.4494    0.7473    8.8079 C   0  0  0  0  0  0
   -0.1258    1.5777    7.8459 C   0  0  0  0  0  0
    0.0652    1.3109    6.4902 C   0  0  0  0  0  0
   -0.8854    2.6652    8.2364 N   0  0  0  0  0  0
   -1.5148    3.5736    7.4225 C   0  0  0  0  0  0
   -2.1803    4.5239    8.1604 C   0  0  0  0  0  0
   -1.9478    4.1816    9.4627 N   0  0  0  0  0  0
   -1.1656    3.0603    9.4584 C   0  0  0  0  0  0
   -2.9841    5.6787    7.7599 C   0  0  0  0  0  0
    1.8303   -1.2376    9.4424 C   0  0  0  0  0  0
    2.5519   -2.2701    8.9139 F   0  0  0  0  0  0
    2.6957   -0.5897   10.2775 F   0  0  0  0  0  0
    0.9022   -1.8193   10.2570 F   0  0  0  0  0  0
    2.8815   -1.5271   -1.9303 H   0  0  0  0  0  0
    1.9552    0.0116   -1.9659 H   0  0  0  0  0  0
    1.0876   -1.5605   -2.0171 H   0  0  0  0  0  0
    3.7656   -2.0799    0.0924 H   0  0  0  0  0  0
    3.6922   -2.1165    2.5532 H   0  0  0  0  0  0
   -0.0771   -0.0365    2.4806 H   0  0  0  0  0  0
   -1.9605    1.3577   -1.7421 H   0  0  0  0  0  0
   -4.2241    1.5575   -1.1755 H   0  0  0  0  0  0
   -5.2140    0.7255    0.8226 H   0  0  0  0  0  0
   -2.5712    0.6028    4.0298 H   0  0  0  0  0  0
   -3.4348   -0.3892    6.1348 H   0  0  0  0  0  0
   -5.2068   -2.1457    5.9840 H   0  0  0  0  0  0
   -5.2729   -1.9622    1.8776 H   0  0  0  0  0  0
    0.5146    0.6825    4.0848 H   0  0  0  0  0  0
    2.0051   -1.4721    6.7533 H   0  0  0  0  0  0
    0.3025    0.9520    9.8664 H   0  0  0  0  0  0
   -0.3819    1.9581    5.7381 H   0  0  0  0  0  0
   -1.5366    3.6107    6.4234 H   0  0  0  0  0  0
   -0.8803    2.6464   10.3228 H   0  0  0  0  0  0
   -3.3505    6.1992    8.6570 H   0  0  0  0  0  0
   -3.8398    5.3388    7.1580 H   0  0  0  0  0  0
   -2.3664    6.3663    7.1636 H   0  0  0  0  0  0
  1  2  1  0  0  0
  1 40  1  0  0  0
  1 41  1  0  0  0
  1 42  1  0  0  0
  2  7  2  0  0  0
  2  3  1  0  0  0
  3  4  2  0  0  0
  3 43  1  0  0  0
  4  5  1  0  0  0
  4 44  1  0  0  0
  5  6  2  0  0  0
  5 21  1  0  0  0
  6  7  1  0  0  0
  6 45  1  0  0  0
  7  8  1  0  0  0
  8  9  2  0  0  0
  9 14  1  0  0  0
  9 10  1  0  0  0
 10 11  1  0  0  0
 10 46  1  0  0  0
 11 12  2  0  0  0
 11 47  1  0  0  0
 12 13  1  0  0  0
 12 48  1  0  0  0
 13 14  2  0  0  0
 13 15  1  0  0  0
 15 20  2  0  0  0
 15 16  1  0  0  0
 16 17  2  0  0  0
 16 49  1  0  0  0
 17 18  1  0  0  0
 17 50  1  0  0  0
 18 19  2  0  0  0
 18 51  1  0  0  0
 19 20  1  0  0  0
 20 52  1  0  0  0
 21 22  2  0  0  0
 21 23  1  0  0  0
 23 24  1  0  0  0
 23 53  1  0  0  0
 24 29  2  0  0  0
 24 25  1  0  0  0
 25 26  2  0  0  0
 25 54  1  0  0  0
 26 27  1  0  0  0
 26 36  1  0  0  0
 27 28  2  0  0  0
 27 55  1  0  0  0
 28 29  1  0  0  0
 28 30  1  0  0  0
 29 56  1  0  0  0
 30 34  1  0  0  0
 30 31  1  0  0  0
 31 32  2  0  0  0
 31 57  1  0  0  0
 32 33  1  0  0  0
 32 35  1  0  0  0
 33 34  2  0  0  0
 34 58  1  0  0  0
 35 59  1  0  0  0
 35 60  1  0  0  0
 35 61  1  0  0  0
 36 37  1  0  0  0
 36 38  1  0  0  0
 36 39  1  0  0  0
M  END
> <s_m_source_file>
/Users/andrea/Development/mcce-charges/epik_inhibitors/output/Nilotinib/Nilotinib-input.mol2

> <i_m_source_file_index>
1

> <r_lp_tautomer_probability>
4.69999911640017e-08

> <r_epik_Ionization_Penalty>
  8.4222

> <r_epik_Ionization_Penalty_Charging>
  8.4220

> <r_epik_Ionization_Penalty_Neutral>
  0.0002

> <r_epik_State_Penalty>
 10.7062

> <i_epik_Tot_Q>
0

$$$$
4-methyl-~{N}-[3-(4-methylimidazol-1-yl)-5-(trifluoromethyl)phenyl]-3-[[4-(3-pyridyl)pyrimidin-2-yl]amino]benzamide
                    3D
 Structure written by MMmdl.
 61 65  0  0  1  0            999 V2000
    2.5420    0.7485    0.2845 C   0  0  0  0  0  0
    1.9042    0.8377   -1.0639 C   0  0  0  0  0  0
    2.6841    1.2266   -2.1531 C   0  0  0  0  0  0
    2.1132    1.3172   -3.4226 C   0  0  0  0  0  0
    0.7625    1.0191   -3.6028 C   0  0  0  0  0  0
   -0.0173    0.6303   -2.5135 C   0  0  0  0  0  0
    0.5537    0.5397   -1.2440 C   0  0  0  0  0  0
   -0.2506    0.1438   -0.1525 N   0  0  0  0  0  0
   -1.6211    0.2991    0.1258 C   0  0  0  0  0  0
   -2.3531    0.9480   -0.7998 N   0  0  0  0  0  0
   -3.6621    1.0791   -0.5007 C   0  0  0  0  0  0
   -4.2361    0.5966    0.6578 C   0  0  0  0  0  0
   -3.3783   -0.0483    1.5252 C   0  0  0  0  0  0
   -2.0603   -0.2153    1.2903 N   0  0  0  0  0  0
   -3.8531   -0.5990    2.7720 C   0  0  0  0  0  0
   -3.3415   -0.1633    3.9893 C   0  0  0  0  0  0
   -3.8190   -0.7122    5.1742 C   0  0  0  0  0  0
   -4.8008   -1.6862    5.0884 C   0  0  0  0  0  0
   -5.3220   -2.1350    3.9246 N   0  0  0  0  0  0
   -4.8332   -1.5782    2.7938 C   0  0  0  0  0  0
    0.1684    1.1133   -4.9269 C   0  0  0  0  0  0
    0.6383    1.8558   -5.8001 O   0  0  0  0  0  0
   -0.9382    0.2775   -5.1432 N   0  0  0  0  0  0
   -1.7024    0.1156   -6.3263 C   0  0  0  0  0  0
   -1.3783    0.8442   -7.4709 C   0  0  0  0  0  0
   -2.1295    0.6842   -8.6353 C   0  0  0  0  0  0
   -3.2046   -0.2043   -8.6552 C   0  0  0  0  0  0
   -3.5286   -0.9328   -7.5106 C   0  0  0  0  0  0
   -2.7775   -0.7727   -6.3462 C   0  0  0  0  0  0
   -4.5946   -1.8134   -7.5304 N   0  0  0  0  0  0
   -5.0411   -2.5999   -6.4980 C   0  0  0  0  0  0
   -6.1270   -3.3517   -6.8803 C   0  0  0  0  0  0
   -6.3465   -3.0109   -8.1852 N   0  0  0  0  0  0
   -5.4018   -2.0853   -8.5316 C   0  0  0  0  0  0
   -6.9423   -4.3231   -6.1510 C   0  0  0  0  0  0
   -1.7831    1.4631   -9.8588 C   0  0  0  0  0  0
   -0.7099    2.2922   -9.6947 F   0  0  0  0  0  0
   -1.4675    0.6813  -10.9337 F   0  0  0  0  0  0
   -2.8047    2.2657  -10.2774 F   0  0  0  0  0  0
    3.6044    1.0229    0.2065 H   0  0  0  0  0  0
    2.4560   -0.2806    0.6634 H   0  0  0  0  0  0
    2.0351    1.4375    0.9762 H   0  0  0  0  0  0
    3.7373    1.4605   -2.0227 H   0  0  0  0  0  0
    2.7311    1.6194   -4.2643 H   0  0  0  0  0  0
   -1.0707    0.3974   -2.6543 H   0  0  0  0  0  0
   -1.9605    1.3577   -1.7421 H   0  0  0  0  0  0
   -4.2241    1.5575   -1.1755 H   0  0  0  0  0  0
   -5.2140    0.7255    0.8226 H   0  0  0  0  0  0
   -2.5712    0.6028    4.0298 H   0  0  0  0  0  0
   -3.4348   -0.3892    6.1348 H   0  0  0  0  0  0
   -5.2068   -2.1457    5.9840 H   0  0  0  0  0  0
   -5.2729   -1.9622    1.8776 H   0  0  0  0  0  0
   -1.3124   -0.3613   -4.3296 H   0  0  0  0  0  0
   -0.5397    1.5369   -7.4577 H   0  0  0  0  0  0
   -3.7882   -0.3262   -9.5653 H   0  0  0  0  0  0
   -3.0281   -1.3409   -5.4524 H   0  0  0  0  0  0
   -4.6837   -2.6750   -5.5671 H   0  0  0  0  0  0
   -5.3899   -1.7050   -9.4564 H   0  0  0  0  0  0
   -7.7287   -4.7130   -6.8140 H   0  0  0  0  0  0
   -7.4052   -3.8338   -5.2813 H   0  0  0  0  0  0
   -6.3060   -5.1528   -5.8093 H   0  0  0  0  0  0
  1  2  1  0  0  0
  1 40  1  0  0  0
  1 41  1  0  0  0
  1 42  1  0  0  0
  2  7  2  0  0  0
  2  3  1  0  0  0
  3  4  2  0  0  0
  3 43  1  0  0  0
  4  5  1  0  0  0
  4 44  1  0  0  0
  5  6  2  0  0  0
  5 21  1  0  0  0
  6  7  1  0  0  0
  6 45  1  0  0  0
  7  8  1  0  0  0
  8  9  2  0  0  0
  9 14  1  0  0  0
  9 10  1  0  0  0
 10 11  1  0  0  0
 10 46  1  0  0  0
 11 12  2  0  0  0
 11 47  1  0  0  0
 12 13  1  0  0  0
 12 48  1  0  0  0
 13 14  2  0  0  0
 13 15  1  0  0  0
 15 20  2  0  0  0
 15 16  1  0  0  0
 16 17  2  0  0  0
 16 49  1  0  0  0
 17 18  1  0  0  0
 17 50  1  0  0  0
 18 19  2  0  0  0
 18 51  1  0  0  0
 19 20  1  0  0  0
 20 52  1  0  0  0
 21 22  2  0  0  0
 21 23  1  0  0  0
 23 24  1  0  0  0
 23 53  1  0  0  0
 24 29  2  0  0  0
 24 25  1  0  0  0
 25 26  2  0  0  0
 25 54  1  0  0  0
 26 27  1  0  0  0
 26 36  1  0  0  0
 27 28  2  0  0  0
 27 55  1  0  0  0
 28 29  1  0  0  0
 28 30  1  0  0  0
 29 56  1  0  0  0
 30 34  1  0  0  0
 30 31  1  0  0  0
 31 32  2  0  0  0
 31 57  1  0  0  0
 32 33  1  0  0  0
 32 35  1  0  0  0
 33 34  2  0  0  0
 34 58  1  0  0  0
 35 59  1  0  0  0
 35 60  1  0  0  0
 35 61  1  0  0  0
 36 37  1  0  0  0
 36 38  1  0  0  0
 36 39  1  0  0  0
M  END
> <s_m_source_file>
/Users/andrea/Development/mcce-charges/epik_inhibitors/output/Nilotinib/Nilotinib-input.mol2

> <i_m_source_file_index>
1

> <r_lp_tautomer_probability>
4.69999911640017e-08

> <r_epik_Ionization_Penalty>
  8.4222

> <r_epik_Ionization_Penalty_Charging>
  8.4220

> <r_epik_Ionization_Penalty_Neutral>
  0.0002

> <r_epik_State_Penalty>
 10.7062

> <i_epik_Tot_Q>
0

$$$$
4-methyl-~{N}-[3-(4-methylimidazol-1-yl)-5-(trifluoromethyl)phenyl]-3-[[4-(3-pyridyl)pyrimidin-2-yl]amino]benzamide
                    3D
 Structure written by MMmdl.
 61 65  0  0  1  0            999 V2000
    1.9571   -1.0275   -1.6049 C   0  0  0  0  0  0
    1.8851   -1.0363   -0.1124 C   0  0  0  0  0  0
    2.9210   -1.6309    0.6081 C   0  0  0  0  0  0
    2.8783   -1.6520    2.0022 C   0  0  0  0  0  0
    1.7997   -1.0786    2.6757 C   0  0  0  0  0  0
    0.7638   -0.4841    1.9551 C   0  0  0  0  0  0
    0.8066   -0.4630    0.5610 C   0  0  0  0  0  0
   -0.2506    0.1438   -0.1525 N   0  0  0  0  0  0
   -1.6211    0.2991    0.1258 C   0  0  0  0  0  0
   -2.3535    0.9462   -0.8007 N   0  0  0  0  0  0
   -3.6625    1.0774   -0.5016 C   0  0  0  0  0  0
   -4.2363    0.5958    0.6574 C   0  0  0  0  0  0
   -3.3783   -0.0483    1.5252 C   0  0  0  0  0  0
   -2.0603   -0.2153    1.2903 N   0  0  0  0  0  0
   -3.8529   -0.5981    2.7725 C   0  0  0  0  0  0
   -3.3405   -0.1620    3.9893 C   0  0  0  0  0  0
   -3.8179   -0.7100    5.1747 C   0  0  0  0  0  0
   -4.8002   -1.6835    5.0899 C   0  0  0  0  0  0
   -5.3222   -2.1326    3.9265 N   0  0  0  0  0  0
   -4.8335   -1.5767    2.7952 C   0  0  0  0  0  0
    1.7565   -1.1006    4.1292 C   0  0  0  0  0  0
    2.3550   -1.9642    4.7855 O   0  0  0  0  0  0
    1.0265   -0.0567    4.7185 N   0  0  0  0  0  0
    0.8314    0.2139    6.0964 C   0  0  0  0  0  0
    1.4065   -0.6166    7.0584 C   0  0  0  0  0  0
    1.2155   -0.3498    8.4141 C   0  0  0  0  0  0
    0.4494    0.7473    8.8079 C   0  0  0  0  0  0
   -0.1258    1.5777    7.8459 C   0  0  0  0  0  0
    0.0652    1.3109    6.4902 C   0  0  0  0  0  0
   -0.8854    2.6652    8.2364 N   0  0  0  0  0  0
   -1.5148    3.5736    7.4225 C   0  0  0  0  0  0
   -2.1803    4.5239    8.1604 C   0  0  0  0  0  0
   -1.9478    4.1816    9.4627 N   0  0  0  0  0  0
   -1.1656    3.0603    9.4584 C   0  0  0  0  0  0
   -2.9841    5.6787    7.7599 C   0  0  0  0  0  0
    1.8303   -1.2376    9.4424 C   0  0  0  0  0  0
    2.5519   -2.2701    8.9139 F   0  0  0  0  0  0
    2.6957   -0.5897   10.2775 F   0  0  0  0  0  0
    0.9022   -1.8193   10.2570 F   0  0  0  0  0  0
    2.8815   -1.5271   -1.9303 H   0  0  0  0  0  0
    1.9552    0.0116   -1.9659 H   0  0  0  0  0  0
    1.0876   -1.5605   -2.0171 H   0  0  0  0  0  0
    3.7656   -2.0799    0.0924 H   0  0  0  0  0  0
    3.6922   -2.1165    2.5532 H   0  0  0  0  0  0
   -0.0771   -0.0365    2.4806 H   0  0  0  0  0  0
   -1.3578   -0.7248    1.9663 H   0  0  0  0  0  0
   -4.2761    1.5458   -1.1372 H   0  0  0  0  0  0
   -5.2049    0.6879    0.8884 H   0  0  0  0  0  0
   -2.5698    0.6037    4.0291 H   0  0  0  0  0  0
   -3.4331   -0.3866    6.1350 H   0  0  0  0  0  0
   -5.2061   -2.1422    5.9859 H   0  0  0  0  0  0
   -5.2738   -1.9610    1.8794 H   0  0  0  0  0  0
    0.5146    0.6825    4.0848 H   0  0  0  0  0  0
    2.0051   -1.4721    6.7533 H   0  0  0  0  0  0
    0.3025    0.9520    9.8664 H   0  0  0  0  0  0
   -0.3819    1.9581    5.7381 H   0  0  0  0  0  0
   -1.5366    3.6107    6.4234 H   0  0  0  0  0  0
   -0.8803    2.6464   10.3228 H   0  0  0  0  0  0
   -3.3505    6.1992    8.6570 H   0  0  0  0  0  0
   -3.8398    5.3388    7.1580 H   0  0  0  0  0  0
   -2.3664    6.3663    7.1636 H   0  0  0  0  0  0
  1  2  1  0  0  0
  1 40  1  0  0  0
  1 41  1  0  0  0
  1 42  1  0  0  0
  2  7  2  0  0  0
  2  3  1  0  0  0
  3  4  2  0  0  0
  3 43  1  0  0  0
  4  5  1  0  0  0
  4 44  1  0  0  0
  5  6  2  0  0  0
  5 21  1  0  0  0
  6  7  1  0  0  0
  6 45  1  0  0  0
  7  8  1  0  0  0
  8  9  2  0  0  0
  9 14  1  0  0  0
  9 10  1  0  0  0
 10 11  2  0  0  0
 11 12  1  0  0  0
 11 47  1  0  0  0
 12 13  2  0  0  0
 12 48  1  0  0  0
 13 14  1  0  0  0
 13 15  1  0  0  0
 14 46  1  0  0  0
 15 20  2  0  0  0
 15 16  1  0  0  0
 16 17  2  0  0  0
 16 49  1  0  0  0
 17 18  1  0  0  0
 17 50  1  0  0  0
 18 19  2  0  0  0
 18 51  1  0  0  0
 19 20  1  0  0  0
 20 52  1  0  0  0
 21 22  2  0  0  0
 21 23  1  0  0  0
 23 24  1  0  0  0
 23 53  1  0  0  0
 24 29  2  0  0  0
 24 25  1  0  0  0
 25 26  2  0  0  0
 25 54  1  0  0  0
 26 27  1  0  0  0
 26 36  1  0  0  0
 27 28  2  0  0  0
 27 55  1  0  0  0
 28 29  1  0  0  0
 28 30  1  0  0  0
 29 56  1  0  0  0
 30 34  1  0  0  0
 30 31  1  0  0  0
 31 32  2  0  0  0
 31 57  1  0  0  0
 32 33  1  0  0  0
 32 35  1  0  0  0
 33 34  2  0  0  0
 34 58  1  0  0  0
 35 59  1  0  0  0
 35 60  1  0  0  0
 35 61  1  0  0  0
 36 37  1  0  0  0
 36 38  1  0  0  0
 36 39  1  0  0  0
M  END
> <s_m_source_file>
/Users/andrea/Development/mcce-charges/epik_inhibitors/output/Nilotinib/Nilotinib-input.mol2

> <i_m_source_file_index>
1

> <r_lp_tautomer_probability>
4.69999911640017e-08

> <r_epik_Ionization_Penalty>
  8.7360

> <r_epik_Ionization_Penalty_Charging>
  8.7358

> <r_epik_Ionization_Penalty_Neutral>
  0.0002

> <r_epik_State_Penalty>
 10.9420

> <i_epik_Tot_Q>
0

$$$$
4-methyl-~{N}-[3-(4-methylimidazol-1-yl)-5-(trifluoromethyl)phenyl]-3-[[4-(3-pyridyl)pyrimidin-2-yl]amino]benzamide
                    3D
 Structure written by MMmdl.
 61 65  0  0  1  0            999 V2000
    2.5420    0.7485    0.2845 C   0  0  0  0  0  0
    1.9042    0.8377   -1.0639 C   0  0  0  0  0  0
    2.6841    1.2266   -2.1531 C   0  0  0  0  0  0
    2.1132    1.3172   -3.4226 C   0  0  0  0  0  0
    0.7625    1.0191   -3.6028 C   0  0  0  0  0  0
   -0.0173    0.6303   -2.5135 C   0  0  0  0  0  0
    0.5537    0.5397   -1.2440 C   0  0  0  0  0  0
   -0.2506    0.1438   -0.1525 N   0  0  0  0  0  0
   -1.6211    0.2991    0.1258 C   0  0  0  0  0  0
   -2.3535    0.9462   -0.8007 N   0  0  0  0  0  0
   -3.6625    1.0774   -0.5016 C   0  0  0  0  0  0
   -4.2363    0.5958    0.6574 C   0  0  0  0  0  0
   -3.3783   -0.0483    1.5252 C   0  0  0  0  0  0
   -2.0603   -0.2153    1.2903 N   0  0  0  0  0  0
   -3.8529   -0.5981    2.7725 C   0  0  0  0  0  0
   -3.3405   -0.1620    3.9893 C   0  0  0  0  0  0
   -3.8179   -0.7100    5.1747 C   0  0  0  0  0  0
   -4.8002   -1.6835    5.0899 C   0  0  0  0  0  0
   -5.3222   -2.1326    3.9265 N   0  0  0  0  0  0
   -4.8335   -1.5767    2.7952 C   0  0  0  0  0  0
    0.1684    1.1133   -4.9269 C   0  0  0  0  0  0
    0.6383    1.8558   -5.8001 O   0  0  0  0  0  0
   -0.9382    0.2775   -5.1432 N   0  0  0  0  0  0
   -1.7024    0.1156   -6.3263 C   0  0  0  0  0  0
   -1.3783    0.8442   -7.4709 C   0  0  0  0  0  0
   -2.1295    0.6842   -8.6353 C   0  0  0  0  0  0
   -3.2046   -0.2043   -8.6552 C   0  0  0  0  0  0
   -3.5286   -0.9328   -7.5106 C   0  0  0  0  0  0
   -2.7775   -0.7727   -6.3462 C   0  0  0  0  0  0
   -4.5946   -1.8134   -7.5304 N   0  0  0  0  0  0
   -5.0411   -2.5999   -6.4980 C   0  0  0  0  0  0
   -6.1270   -3.3517   -6.8803 C   0  0  0  0  0  0
   -6.3465   -3.0109   -8.1852 N   0  0  0  0  0  0
   -5.4018   -2.0853   -8.5316 C   0  0  0  0  0  0
   -6.9423   -4.3231   -6.1510 C   0  0  0  0  0  0
   -1.7831    1.4631   -9.8588 C   0  0  0  0  0  0
   -0.7099    2.2922   -9.6947 F   0  0  0  0  0  0
   -1.4675    0.6813  -10.9337 F   0  0  0  0  0  0
   -2.8047    2.2657  -10.2774 F   0  0  0  0  0  0
    3.6044    1.0229    0.2065 H   0  0  0  0  0  0
    2.4560   -0.2806    0.6634 H   0  0  0  0  0  0
    2.0351    1.4375    0.9762 H   0  0  0  0  0  0
    3.7373    1.4605   -2.0227 H   0  0  0  0  0  0
    2.7311    1.6194   -4.2643 H   0  0  0  0  0  0
   -1.0707    0.3974   -2.6543 H   0  0  0  0  0  0
   -1.3578   -0.7248    1.9663 H   0  0  0  0  0  0
   -4.2761    1.5458   -1.1372 H   0  0  0  0  0  0
   -5.2049    0.6879    0.8884 H   0  0  0  0  0  0
   -2.5698    0.6037    4.0291 H   0  0  0  0  0  0
   -3.4331   -0.3866    6.1350 H   0  0  0  0  0  0
   -5.2061   -2.1422    5.9859 H   0  0  0  0  0  0
   -5.2738   -1.9610    1.8794 H   0  0  0  0  0  0
   -1.3124   -0.3613   -4.3296 H   0  0  0  0  0  0
   -0.5397    1.5369   -7.4577 H   0  0  0  0  0  0
   -3.7882   -0.3262   -9.5653 H   0  0  0  0  0  0
   -3.0281   -1.3409   -5.4524 H   0  0  0  0  0  0
   -4.6837   -2.6750   -5.5671 H   0  0  0  0  0  0
   -5.3899   -1.7050   -9.4564 H   0  0  0  0  0  0
   -7.7287   -4.7130   -6.8140 H   0  0  0  0  0  0
   -7.4052   -3.8338   -5.2813 H   0  0  0  0  0  0
   -6.3060   -5.1528   -5.8093 H   0  0  0  0  0  0
  1  2  1  0  0  0
  1 40  1  0  0  0
  1 41  1  0  0  0
  1 42  1  0  0  0
  2  7  2  0  0  0
  2  3  1  0  0  0
  3  4  2  0  0  0
  3 43  1  0  0  0
  4  5  1  0  0  0
  4 44  1  0  0  0
  5  6  2  0  0  0
  5 21  1  0  0  0
  6  7  1  0  0  0
  6 45  1  0  0  0
  7  8  1  0  0  0
  8  9  2  0  0  0
  9 14  1  0  0  0
  9 10  1  0  0  0
 10 11  2  0  0  0
 11 12  1  0  0  0
 11 47  1  0  0  0
 12 13  2  0  0  0
 12 48  1  0  0  0
 13 14  1  0  0  0
 13 15  1  0  0  0
 14 46  1  0  0  0
 15 20  2  0  0  0
 15 16  1  0  0  0
 16 17  2  0  0  0
 16 49  1  0  0  0
 17 18  1  0  0  0
 17 50  1  0  0  0
 18 19  2  0  0  0
 18 51  1  0  0  0
 19 20  1  0  0  0
 20 52  1  0  0  0
 21 22  2  0  0  0
 21 23  1  0  0  0
 23 24  1  0  0  0
 23 53  1  0  0  0
 24 29  2  0  0  0
 24 25  1  0  0  0
 25 26  2  0  0  0
 25 54  1  0  0  0
 26 27  1  0  0  0
 26 36  1  0  0  0
 27 28  2  0  0  0
 27 55  1  0  0  0
 28 29  1  0  0  0
 28 30  1  0  0  0
 29 56  1  0  0  0
 30 34  1  0  0  0
 30 31  1  0  0  0
 31 32  2  0  0  0
 31 57  1  0  0  0
 32 33  1  0  0  0
 32 35  1  0  0  0
 33 34  2  0  0  0
 34 58  1  0  0  0
 35 59  1  0  0  0
 35 60  1  0  0  0
 35 61  1  0  0  0
 36 37  1  0  0  0
 36 38  1  0  0  0
 36 39  1  0  0  0
M  END
> <s_m_source_file>
/Users/andrea/Development/mcce-charges/epik_inhibitors/output/Nilotinib/Nilotinib-input.mol2

> <i_m_source_file_index>
1

> <r_lp_tautomer_probability>
4.69999911640017e-08

> <r_epik_Ionization_Penalty>
  8.7360

> <r_epik_Ionization_Penalty_Charging>
  8.7358

> <r_epik_Ionization_Penalty_Neutral>
  0.0002

> <r_epik_State_Penalty>
 10.9420

> <i_epik_Tot_Q>
0

$$$$
4-methyl-~{N}-[3-(4-methylimidazol-1-yl)-5-(trifluoromethyl)phenyl]-3-[[4-(3-pyridyl)pyrimidin-2-yl]amino]benzamide
                    3D
 Structure written by MMmdl.
 62 66  0  0  1  0            999 V2000
    1.9571   -1.0275   -1.6049 C   0  0  0  0  0  0
    1.8851   -1.0363   -0.1124 C   0  0  0  0  0  0
    2.9210   -1.6309    0.6081 C   0  0  0  0  0  0
    2.8783   -1.6520    2.0022 C   0  0  0  0  0  0
    1.7997   -1.0786    2.6757 C   0  0  0  0  0  0
    0.7638   -0.4841    1.9551 C   0  0  0  0  0  0
    0.8066   -0.4630    0.5610 C   0  0  0  0  0  0
   -0.2506    0.1438   -0.1525 N   0  0  0  0  0  0
   -1.6211    0.2991    0.1258 C   0  0  0  0  0  0
   -2.3535    0.9462   -0.8007 N   0  3  0  0  0  0
   -3.6625    1.0774   -0.5016 C   0  0  0  0  0  0
   -4.2363    0.5958    0.6574 C   0  0  0  0  0  0
   -3.3783   -0.0483    1.5252 C   0  0  0  0  0  0
   -2.0603   -0.2153    1.2903 N   0  0  0  0  0  0
   -3.8531   -0.5990    2.7720 C   0  0  0  0  0  0
   -3.3415   -0.1633    3.9893 C   0  0  0  0  0  0
   -3.8190   -0.7122    5.1742 C   0  0  0  0  0  0
   -4.8008   -1.6862    5.0884 C   0  0  0  0  0  0
   -5.3220   -2.1350    3.9246 N   0  0  0  0  0  0
   -4.8332   -1.5782    2.7938 C   0  0  0  0  0  0
    1.7565   -1.1006    4.1292 C   0  0  0  0  0  0
    2.3550   -1.9642    4.7855 O   0  0  0  0  0  0
    1.0265   -0.0567    4.7185 N   0  0  0  0  0  0
    0.8314    0.2139    6.0964 C   0  0  0  0  0  0
    1.4065   -0.6166    7.0584 C   0  0  0  0  0  0
    1.2155   -0.3498    8.4141 C   0  0  0  0  0  0
    0.4494    0.7473    8.8079 C   0  0  0  0  0  0
   -0.1258    1.5777    7.8459 C   0  0  0  0  0  0
    0.0652    1.3109    6.4902 C   0  0  0  0  0  0
   -0.8854    2.6652    8.2364 N   0  0  0  0  0  0
   -1.5148    3.5736    7.4225 C   0  0  0  0  0  0
   -2.1803    4.5239    8.1604 C   0  0  0  0  0  0
   -1.9478    4.1816    9.4627 N   0  0  0  0  0  0
   -1.1656    3.0603    9.4584 C   0  0  0  0  0  0
   -2.9841    5.6787    7.7599 C   0  0  0  0  0  0
    1.8303   -1.2376    9.4424 C   0  0  0  0  0  0
    2.5519   -2.2701    8.9139 F   0  0  0  0  0  0
    2.6957   -0.5897   10.2775 F   0  0  0  0  0  0
    0.9022   -1.8193   10.2570 F   0  0  0  0  0  0
    2.8815   -1.5271   -1.9303 H   0  0  0  0  0  0
    1.9552    0.0116   -1.9659 H   0  0  0  0  0  0
    1.0876   -1.5605   -2.0171 H   0  0  0  0  0  0
    3.7656   -2.0799    0.0924 H   0  0  0  0  0  0
    3.6922   -2.1165    2.5532 H   0  0  0  0  0  0
   -0.0771   -0.0365    2.4806 H   0  0  0  0  0  0
   -0.0573    0.6133   -1.1283 H   0  0  0  0  0  0
   -4.2577    1.5979   -1.2444 H   0  0  0  0  0  0
   -5.2927    0.7225    0.8587 H   0  0  0  0  0  0
   -2.5712    0.6028    4.0298 H   0  0  0  0  0  0
   -3.4348   -0.3891    6.1348 H   0  0  0  0  0  0
   -5.2068   -2.1456    5.9840 H   0  0  0  0  0  0
   -5.2729   -1.9622    1.8776 H   0  0  0  0  0  0
    0.5146    0.6825    4.0848 H   0  0  0  0  0  0
    2.0051   -1.4721    6.7533 H   0  0  0  0  0  0
    0.3025    0.9520    9.8664 H   0  0  0  0  0  0
   -0.3819    1.9581    5.7381 H   0  0  0  0  0  0
   -1.4382    3.4700    6.3473 H   0  0  0  0  0  0
   -0.8310    2.5754   10.3671 H   0  0  0  0  0  0
   -3.3505    6.1992    8.6570 H   0  0  0  0  0  0
   -3.8398    5.3388    7.1580 H   0  0  0  0  0  0
   -2.3664    6.3663    7.1636 H   0  0  0  0  0  0
   -1.8742    1.3213   -1.7170 H   0  0  0  0  0  0
  1  2  1  0  0  0
  1 40  1  0  0  0
  1 41  1  0  0  0
  1 42  1  0  0  0
  2  7  2  0  0  0
  2  3  1  0  0  0
  3  4  2  0  0  0
  3 43  1  0  0  0
  4  5  1  0  0  0
  4 44  1  0  0  0
  5  6  2  0  0  0
  5 21  1  0  0  0
  6  7  1  0  0  0
  6 45  1  0  0  0
  7  8  1  0  0  0
  8  9  1  0  0  0
  8 46  1  0  0  0
  9 14  2  0  0  0
  9 10  1  0  0  0
 10 11  2  0  0  0
 10 62  1  0  0  0
 11 12  1  0  0  0
 11 47  1  0  0  0
 12 13  2  0  0  0
 12 48  1  0  0  0
 13 14  1  0  0  0
 13 15  1  0  0  0
 15 20  2  0  0  0
 15 16  1  0  0  0
 16 17  2  0  0  0
 16 49  1  0  0  0
 17 18  1  0  0  0
 17 50  1  0  0  0
 18 19  2  0  0  0
 18 51  1  0  0  0
 19 20  1  0  0  0
 20 52  1  0  0  0
 21 22  2  0  0  0
 21 23  1  0  0  0
 23 24  1  0  0  0
 23 53  1  0  0  0
 24 29  2  0  0  0
 24 25  1  0  0  0
 25 26  2  0  0  0
 25 54  1  0  0  0
 26 27  1  0  0  0
 26 36  1  0  0  0
 27 28  2  0  0  0
 27 55  1  0  0  0
 28 29  1  0  0  0
 28 30  1  0  0  0
 29 56  1  0  0  0
 30 34  1  0  0  0
 30 31  1  0  0  0
 31 32  2  0  0  0
 31 57  1  0  0  0
 32 33  1  0  0  0
 32 35  1  0  0  0
 33 34  2  0  0  0
 34 58  1  0  0  0
 35 59  1  0  0  0
 35 60  1  0  0  0
 35 61  1  0  0  0
 36 37  1  0  0  0
 36 38  1  0  0  0
 36 39  1  0  0  0
M  CHG  1  10   1
M  END
> <s_m_source_file>
/Users/andrea/Development/mcce-charges/epik_inhibitors/output/Nilotinib/Nilotinib-input.mol2

> <i_m_source_file_index>
1

> <r_epik_Ionization_Penalty>
  5.9545

> <r_epik_Ionization_Penalty_Charging>
  5.9493

> <r_epik_Ionization_Penalty_Neutral>
  0.0052

> <r_epik_State_Penalty>
 11.7336

> <i_epik_Tot_Q>
1

$$$$
4-methyl-~{N}-[3-(4-methylimidazol-1-yl)-5-(trifluoromethyl)phenyl]-3-[[4-(3-pyridyl)pyrimidin-2-yl]amino]benzamide
                    3D
 Structure written by MMmdl.
 62 66  0  0  1  0            999 V2000
    1.9571   -1.0275   -1.6049 C   0  0  0  0  0  0
    1.8851   -1.0363   -0.1124 C   0  0  0  0  0  0
    2.9210   -1.6309    0.6081 C   0  0  0  0  0  0
    2.8783   -1.6520    2.0022 C   0  0  0  0  0  0
    1.7997   -1.0786    2.6757 C   0  0  0  0  0  0
    0.7638   -0.4841    1.9551 C   0  0  0  0  0  0
    0.8066   -0.4630    0.5610 C   0  0  0  0  0  0
   -0.2506    0.1438   -0.1525 N   0  0  0  0  0  0
   -1.6211    0.2991    0.1258 C   0  0  0  0  0  0
   -2.3531    0.9480   -0.7998 N   0  0  0  0  0  0
   -3.6621    1.0791   -0.5007 C   0  0  0  0  0  0
   -4.2361    0.5966    0.6578 C   0  0  0  0  0  0
   -3.3783   -0.0483    1.5252 C   0  0  0  0  0  0
   -2.0603   -0.2153    1.2903 N   0  0  0  0  0  0
   -3.8531   -0.5990    2.7720 C   0  0  0  0  0  0
   -3.3415   -0.1633    3.9893 C   0  0  0  0  0  0
   -3.8190   -0.7122    5.1742 C   0  0  0  0  0  0
   -4.8008   -1.6862    5.0884 C   0  0  0  0  0  0
   -5.3220   -2.1350    3.9246 N   0  0  0  0  0  0
   -4.8332   -1.5782    2.7938 C   0  0  0  0  0  0
    1.7565   -1.1006    4.1292 C   0  0  0  0  0  0
    2.3550   -1.9642    4.7855 O   0  0  0  0  0  0
    1.0265   -0.0567    4.7185 N   0  0  0  0  0  0
    0.8314    0.2139    6.0964 C   0  0  0  0  0  0
    1.4065   -0.6166    7.0584 C   0  0  0  0  0  0
    1.2155   -0.3498    8.4141 C   0  0  0  0  0  0
    0.4494    0.7473    8.8079 C   0  0  0  0  0  0
   -0.1258    1.5777    7.8459 C   0  0  0  0  0  0
    0.0652    1.3109    6.4902 C   0  0  0  0  0  0
   -0.8854    2.6652    8.2364 N   0  0  0  0  0  0
   -1.5148    3.5736    7.4225 C   0  0  0  0  0  0
   -2.1803    4.5239    8.1604 C   0  0  0  0  0  0
   -1.9478    4.1816    9.4627 N   0  3  0  0  0  0
   -1.1656    3.0603    9.4584 C   0  0  0  0  0  0
   -2.9841    5.6787    7.7599 C   0  0  0  0  0  0
    1.8303   -1.2376    9.4424 C   0  0  0  0  0  0
    2.5519   -2.2701    8.9139 F   0  0  0  0  0  0
    2.6957   -0.5897   10.2775 F   0  0  0  0  0  0
    0.9022   -1.8193   10.2570 F   0  0  0  0  0  0
    2.8815   -1.5271   -1.9303 H   0  0  0  0  0  0
    1.9552    0.0116   -1.9659 H   0  0  0  0  0  0
    1.0876   -1.5605   -2.0171 H   0  0  0  0  0  0
    3.7656   -2.0799    0.0924 H   0  0  0  0  0  0
    3.6922   -2.1165    2.5532 H   0  0  0  0  0  0
   -0.0771   -0.0365    2.4806 H   0  0  0  0  0  0
   -4.2241    1.5575   -1.1755 H   0  0  0  0  0  0
   -5.2140    0.7255    0.8226 H   0  0  0  0  0  0
   -2.5712    0.6028    4.0298 H   0  0  0  0  0  0
   -3.4348   -0.3892    6.1348 H   0  0  0  0  0  0
   -5.2068   -2.1457    5.9840 H   0  0  0  0  0  0
   -5.2729   -1.9622    1.8776 H   0  0  0  0  0  0
    0.5146    0.6825    4.0848 H   0  0  0  0  0  0
    2.0051   -1.4721    6.7533 H   0  0  0  0  0  0
    0.3025    0.9520    9.8664 H   0  0  0  0  0  0
   -0.3819    1.9581    5.7381 H   0  0  0  0  0  0
   -1.5366    3.6107    6.4234 H   0  0  0  0  0  0
   -0.8803    2.6464   10.3228 H   0  0  0  0  0  0
   -3.3505    6.1992    8.6570 H   0  0  0  0  0  0
   -3.8398    5.3388    7.1580 H   0  0  0  0  0  0
   -2.3664    6.3663    7.1636 H   0  0  0  0  0  0
   -2.3746    4.7878   10.2753 H   0  0  0  0  0  0
   -1.9605    1.3577   -1.7421 H   0  0  0  0  0  0
  1  2  1  0  0  0
  1 40  1  0  0  0
  1 41  1  0  0  0
  1 42  1  0  0  0
  2  7  2  0  0  0
  2  3  1  0  0  0
  3  4  2  0  0  0
  3 43  1  0  0  0
  4  5  1  0  0  0
  4 44  1  0  0  0
  5  6  2  0  0  0
  5 21  1  0  0  0
  6  7  1  0  0  0
  6 45  1  0  0  0
  7  8  1  0  0  0
  8  9  2  0  0  0
  9 14  1  0  0  0
  9 10  1  0  0  0
 10 11  1  0  0  0
 10 62  1  0  0  0
 11 12  2  0  0  0
 11 46  1  0  0  0
 12 13  1  0  0  0
 12 47  1  0  0  0
 13 14  2  0  0  0
 13 15  1  0  0  0
 15 20  2  0  0  0
 15 16  1  0  0  0
 16 17  2  0  0  0
 16 48  1  0  0  0
 17 18  1  0  0  0
 17 49  1  0  0  0
 18 19  2  0  0  0
 18 50  1  0  0  0
 19 20  1  0  0  0
 20 51  1  0  0  0
 21 22  2  0  0  0
 21 23  1  0  0  0
 23 24  1  0  0  0
 23 52  1  0  0  0
 24 29  2  0  0  0
 24 25  1  0  0  0
 25 26  2  0  0  0
 25 53  1  0  0  0
 26 27  1  0  0  0
 26 36  1  0  0  0
 27 28  2  0  0  0
 27 54  1  0  0  0
 28 29  1  0  0  0
 28 30  1  0  0  0
 29 55  1  0  0  0
 30 34  1  0  0  0
 30 31  1  0  0  0
 31 32  2  0  0  0
 31 56  1  0  0  0
 32 33  1  0  0  0
 32 35  1  0  0  0
 33 34  2  0  0  0
 33 61  1  0  0  0
 34 57  1  0  0  0
 35 58  1  0  0  0
 35 59  1  0  0  0
 35 60  1  0  0  0
 36 37  1  0  0  0
 36 38  1  0  0  0
 36 39  1  0  0  0
M  CHG  1  33   1
M  END
> <s_m_source_file>
/Users/andrea/Development/mcce-charges/epik_inhibitors/output/Nilotinib/Nilotinib-input.mol2

> <i_m_source_file_index>
1

> <r_lp_tautomer_probability>
4.69999911640017e-08

> <r_epik_Ionization_Penalty>
  9.6832

> <r_epik_Ionization_Penalty_Charging>
  8.3554

> <r_epik_Ionization_Penalty_Neutral>
  1.3278

> <r_epik_State_Penalty>
 12.0159

> <i_epik_Tot_Q>
1

$$$$
4-methyl-~{N}-[3-(4-methylimidazol-1-yl)-5-(trifluoromethyl)phenyl]-3-[[4-(3-pyridyl)pyrimidin-2-yl]amino]benzamide
                    3D
 Structure written by MMmdl.
 62 66  0  0  1  0            999 V2000
    2.5420    0.7485    0.2845 C   0  0  0  0  0  0
    1.9042    0.8377   -1.0639 C   0  0  0  0  0  0
    2.6841    1.2266   -2.1531 C   0  0  0  0  0  0
    2.1132    1.3172   -3.4226 C   0  0  0  0  0  0
    0.7625    1.0191   -3.6028 C   0  0  0  0  0  0
   -0.0173    0.6303   -2.5135 C   0  0  0  0  0  0
    0.5537    0.5397   -1.2440 C   0  0  0  0  0  0
   -0.2506    0.1438   -0.1525 N   0  0  0  0  0  0
   -1.6211    0.2991    0.1258 C   0  0  0  0  0  0
   -2.3531    0.9480   -0.7998 N   0  0  0  0  0  0
   -3.6621    1.0791   -0.5007 C   0  0  0  0  0  0
   -4.2361    0.5966    0.6578 C   0  0  0  0  0  0
   -3.3783   -0.0483    1.5252 C   0  0  0  0  0  0
   -2.0603   -0.2153    1.2903 N   0  0  0  0  0  0
   -3.8531   -0.5990    2.7720 C   0  0  0  0  0  0
   -3.3415   -0.1633    3.9893 C   0  0  0  0  0  0
   -3.8190   -0.7122    5.1742 C   0  0  0  0  0  0
   -4.8008   -1.6862    5.0884 C   0  0  0  0  0  0
   -5.3220   -2.1350    3.9246 N   0  0  0  0  0  0
   -4.8332   -1.5782    2.7938 C   0  0  0  0  0  0
    0.1684    1.1133   -4.9269 C   0  0  0  0  0  0
    0.6383    1.8558   -5.8001 O   0  0  0  0  0  0
   -0.9382    0.2775   -5.1432 N   0  0  0  0  0  0
   -1.7024    0.1156   -6.3263 C   0  0  0  0  0  0
   -1.3783    0.8442   -7.4709 C   0  0  0  0  0  0
   -2.1295    0.6842   -8.6353 C   0  0  0  0  0  0
   -3.2046   -0.2043   -8.6552 C   0  0  0  0  0  0
   -3.5286   -0.9328   -7.5106 C   0  0  0  0  0  0
   -2.7775   -0.7727   -6.3462 C   0  0  0  0  0  0
   -4.5946   -1.8134   -7.5304 N   0  0  0  0  0  0
   -5.0411   -2.5999   -6.4980 C   0  0  0  0  0  0
   -6.1270   -3.3517   -6.8803 C   0  0  0  0  0  0
   -6.3465   -3.0109   -8.1852 N   0  3  0  0  0  0
   -5.4018   -2.0853   -8.5316 C   0  0  0  0  0  0
   -6.9423   -4.3231   -6.1510 C   0  0  0  0  0  0
   -1.7831    1.4631   -9.8588 C   0  0  0  0  0  0
   -0.7099    2.2922   -9.6947 F   0  0  0  0  0  0
   -1.4675    0.6813  -10.9337 F   0  0  0  0  0  0
   -2.8047    2.2657  -10.2774 F   0  0  0  0  0  0
    3.6044    1.0229    0.2065 H   0  0  0  0  0  0
    2.4560   -0.2806    0.6634 H   0  0  0  0  0  0
    2.0351    1.4375    0.9762 H   0  0  0  0  0  0
    3.7373    1.4605   -2.0227 H   0  0  0  0  0  0
    2.7311    1.6194   -4.2643 H   0  0  0  0  0  0
   -1.0707    0.3974   -2.6543 H   0  0  0  0  0  0
   -4.2241    1.5575   -1.1755 H   0  0  0  0  0  0
   -5.2140    0.7255    0.8226 H   0  0  0  0  0  0
   -2.5712    0.6028    4.0298 H   0  0  0  0  0  0
   -3.4348   -0.3892    6.1348 H   0  0  0  0  0  0
   -5.2068   -2.1457    5.9840 H   0  0  0  0  0  0
   -5.2729   -1.9622    1.8776 H   0  0  0  0  0  0
   -1.3124   -0.3613   -4.3296 H   0  0  0  0  0  0
   -0.5397    1.5369   -7.4577 H   0  0  0  0  0  0
   -3.7882   -0.3262   -9.5653 H   0  0  0  0  0  0
   -3.0281   -1.3409   -5.4524 H   0  0  0  0  0  0
   -4.6837   -2.6750   -5.5671 H   0  0  0  0  0  0
   -5.3899   -1.7050   -9.4564 H   0  0  0  0  0  0
   -7.7287   -4.7130   -6.8140 H   0  0  0  0  0  0
   -7.4052   -3.8338   -5.2813 H   0  0  0  0  0  0
   -6.3060   -5.1528   -5.8093 H   0  0  0  0  0  0
   -7.1729   -3.4751   -8.7433 H   0  0  0  0  0  0
   -1.9605    1.3577   -1.7421 H   0  0  0  0  0  0
  1  2  1  0  0  0
  1 40  1  0  0  0
  1 41  1  0  0  0
  1 42  1  0  0  0
  2  7  2  0  0  0
  2  3  1  0  0  0
  3  4  2  0  0  0
  3 43  1  0  0  0
  4  5  1  0  0  0
  4 44  1  0  0  0
  5  6  2  0  0  0
  5 21  1  0  0  0
  6  7  1  0  0  0
  6 45  1  0  0  0
  7  8  1  0  0  0
  8  9  2  0  0  0
  9 14  1  0  0  0
  9 10  1  0  0  0
 10 11  1  0  0  0
 10 62  1  0  0  0
 11 12  2  0  0  0
 11 46  1  0  0  0
 12 13  1  0  0  0
 12 47  1  0  0  0
 13 14  2  0  0  0
 13 15  1  0  0  0
 15 20  2  0  0  0
 15 16  1  0  0  0
 16 17  2  0  0  0
 16 48  1  0  0  0
 17 18  1  0  0  0
 17 49  1  0  0  0
 18 19  2  0  0  0
 18 50  1  0  0  0
 19 20  1  0  0  0
 20 51  1  0  0  0
 21 22  2  0  0  0
 21 23  1  0  0  0
 23 24  1  0  0  0
 23 52  1  0  0  0
 24 29  2  0  0  0
 24 25  1  0  0  0
 25 26  2  0  0  0
 25 53  1  0  0  0
 26 27  1  0  0  0
 26 36  1  0  0  0
 27 28  2  0  0  0
 27 54  1  0  0  0
 28 29  1  0  0  0
 28 30  1  0  0  0
 29 55  1  0  0  0
 30 34  1  0  0  0
 30 31  1  0  0  0
 31 32  2  0  0  0
 31 56  1  0  0  0
 32 33  1  0  0  0
 32 35  1  0  0  0
 33 34  2  0  0  0
 33 61  1  0  0  0
 34 57  1  0  0  0
 35 58  1  0  0  0
 35 59  1  0  0  0
 35 60  1  0  0  0
 36 37  1  0  0  0
 36 38  1  0  0  0
 36 39  1  0  0  0
M  CHG  1  33   1
M  END
> <s_m_source_file>
/Users/andrea/Development/mcce-charges/epik_inhibitors/output/Nilotinib/Nilotinib-input.mol2

> <i_m_source_file_index>
1

> <r_lp_tautomer_probability>
4.69999911640017e-08

> <r_epik_Ionization_Penalty>
  9.6832

> <r_epik_Ionization_Penalty_Charging>
  8.3554

> <r_epik_Ionization_Penalty_Neutral>
  1.3278

> <r_epik_State_Penalty>
 12.0159

> <i_epik_Tot_Q>
1

$$$$
4-methyl-~{N}-[3-(4-methylimidazol-1-yl)-5-(trifluoromethyl)phenyl]-3-[[4-(3-pyridyl)pyrimidin-2-yl]amino]benzamide
                    3D
 Structure written by MMmdl.
 62 66  0  0  1  0            999 V2000
    1.9571   -1.0275   -1.6049 C   0  0  0  0  0  0
    1.8851   -1.0363   -0.1124 C   0  0  0  0  0  0
    2.9210   -1.6309    0.6081 C   0  0  0  0  0  0
    2.8783   -1.6520    2.0022 C   0  0  0  0  0  0
    1.7997   -1.0786    2.6757 C   0  0  0  0  0  0
    0.7638   -0.4841    1.9551 C   0  0  0  0  0  0
    0.8066   -0.4630    0.5610 C   0  0  0  0  0  0
   -0.2506    0.1438   -0.1525 N   0  0  0  0  0  0
   -1.6211    0.2991    0.1258 C   0  0  0  0  0  0
   -2.3535    0.9462   -0.8007 N   0  0  0  0  0  0
   -3.6625    1.0774   -0.5016 C   0  0  0  0  0  0
   -4.2363    0.5958    0.6574 C   0  0  0  0  0  0
   -3.3783   -0.0483    1.5252 C   0  0  0  0  0  0
   -2.0603   -0.2153    1.2903 N   0  3  0  0  0  0
   -3.8531   -0.5990    2.7720 C   0  0  0  0  0  0
   -3.3415   -0.1633    3.9893 C   0  0  0  0  0  0
   -3.8190   -0.7122    5.1742 C   0  0  0  0  0  0
   -4.8008   -1.6862    5.0884 C   0  0  0  0  0  0
   -5.3220   -2.1350    3.9246 N   0  0  0  0  0  0
   -4.8332   -1.5782    2.7938 C   0  0  0  0  0  0
    1.7565   -1.1006    4.1292 C   0  0  0  0  0  0
    2.3550   -1.9642    4.7855 O   0  0  0  0  0  0
    1.0265   -0.0567    4.7185 N   0  0  0  0  0  0
    0.8314    0.2139    6.0964 C   0  0  0  0  0  0
    1.4065   -0.6166    7.0584 C   0  0  0  0  0  0
    1.2155   -0.3498    8.4141 C   0  0  0  0  0  0
    0.4494    0.7473    8.8079 C   0  0  0  0  0  0
   -0.1258    1.5777    7.8459 C   0  0  0  0  0  0
    0.0652    1.3109    6.4902 C   0  0  0  0  0  0
   -0.8854    2.6652    8.2364 N   0  0  0  0  0  0
   -1.5148    3.5736    7.4225 C   0  0  0  0  0  0
   -2.1803    4.5239    8.1604 C   0  0  0  0  0  0
   -1.9478    4.1816    9.4627 N   0  0  0  0  0  0
   -1.1656    3.0603    9.4584 C   0  0  0  0  0  0
   -2.9841    5.6787    7.7599 C   0  0  0  0  0  0
    1.8303   -1.2376    9.4424 C   0  0  0  0  0  0
    2.5519   -2.2701    8.9139 F   0  0  0  0  0  0
    2.6957   -0.5897   10.2775 F   0  0  0  0  0  0
    0.9022   -1.8193   10.2570 F   0  0  0  0  0  0
    2.8815   -1.5271   -1.9303 H   0  0  0  0  0  0
    1.9552    0.0116   -1.9659 H   0  0  0  0  0  0
    1.0876   -1.5605   -2.0171 H   0  0  0  0  0  0
    3.7656   -2.0799    0.0924 H   0  0  0  0  0  0
    3.6922   -2.1165    2.5532 H   0  0  0  0  0  0
   -0.0771   -0.0365    2.4806 H   0  0  0  0  0  0
   -0.0573    0.6133   -1.1283 H   0  0  0  0  0  0
   -4.2577    1.5979   -1.2444 H   0  0  0  0  0  0
   -5.2927    0.7225    0.8587 H   0  0  0  0  0  0
   -2.5712    0.6028    4.0298 H   0  0  0  0  0  0
   -3.4348   -0.3891    6.1348 H   0  0  0  0  0  0
   -5.2068   -2.1456    5.9840 H   0  0  0  0  0  0
   -5.2729   -1.9622    1.8776 H   0  0  0  0  0  0
    0.5146    0.6825    4.0848 H   0  0  0  0  0  0
    2.0051   -1.4721    6.7533 H   0  0  0  0  0  0
    0.3025    0.9520    9.8664 H   0  0  0  0  0  0
   -0.3819    1.9581    5.7381 H   0  0  0  0  0  0
   -1.4382    3.4700    6.3473 H   0  0  0  0  0  0
   -0.8310    2.5754   10.3671 H   0  0  0  0  0  0
   -3.3505    6.1992    8.6570 H   0  0  0  0  0  0
   -3.8398    5.3388    7.1580 H   0  0  0  0  0  0
   -2.3664    6.3663    7.1636 H   0  0  0  0  0  0
   -1.3578   -0.7248    1.9663 H   0  0  0  0  0  0
  1  2  1  0  0  0
  1 40  1  0  0  0
  1 41  1  0  0  0
  1 42  1  0  0  0
  2  7  2  0  0  0
  2  3  1  0  0  0
  3  4  2  0  0  0
  3 43  1  0  0  0
  4  5  1  0  0  0
  4 44  1  0  0  0
  5  6  2  0  0  0
  5 21  1  0  0  0
  6  7  1  0  0  0
  6 45  1  0  0  0
  7  8  1  0  0  0
  8  9  1  0  0  0
  8 46  1  0  0  0
  9 14  2  0  0  0
  9 10  1  0  0  0
 10 11  2  0  0  0
 11 12  1  0  0  0
 11 47  1  0  0  0
 12 13  2  0  0  0
 12 48  1  0  0  0
 13 14  1  0  0  0
 13 15  1  0  0  0
 14 62  1  0  0  0
 15 20  2  0  0  0
 15 16  1  0  0  0
 16 17  2  0  0  0
 16 49  1  0  0  0
 17 18  1  0  0  0
 17 50  1  0  0  0
 18 19  2  0  0  0
 18 51  1  0  0  0
 19 20  1  0  0  0
 20 52  1  0  0  0
 21 22  2  0  0  0
 21 23  1  0  0  0
 23 24  1  0  0  0
 23 53  1  0  0  0
 24 29  2  0  0  0
 24 25  1  0  0  0
 25 26  2  0  0  0
 25 54  1  0  0  0
 26 27  1  0  0  0
 26 36  1  0  0  0
 27 28  2  0  0  0
 27 55  1  0  0  0
 28 29  1  0  0  0
 28 30  1  0  0  0
 29 56  1  0  0  0
 30 34  1  0  0  0
 30 31  1  0  0  0
 31 32  2  0  0  0
 31 57  1  0  0  0
 32 33  1  0  0  0
 32 35  1  0  0  0
 33 34  2  0  0  0
 34 58  1  0  0  0
 35 59  1  0  0  0
 35 60  1  0  0  0
 35 61  1  0  0  0
 36 37  1  0  0  0
 36 38  1  0  0  0
 36 39  1  0  0  0
M  CHG  1  14   1
M  END
> <s_m_source_file>
/Users/andrea/Development/mcce-charges/epik_inhibitors/output/Nilotinib/Nilotinib-input.mol2

> <i_m_source_file_index>
1

> <r_epik_Ionization_Penalty>
  6.4082

> <r_epik_Ionization_Penalty_Charging>
  6.4030

> <r_epik_Ionization_Penalty_Neutral>
  0.0052

> <r_epik_State_Penalty>
 12.1642

> <i_epik_Tot_Q>
1

$$$$
4-methyl-~{N}-[3-(4-methylimidazol-1-yl)-5-(trifluoromethyl)phenyl]-3-[[4-(3-pyridyl)pyrimidin-2-yl]amino]benzamide
                    3D
 Structure written by MMmdl.
 62 66  0  0  1  0            999 V2000
    2.5420    0.7485    0.2845 C   0  0  0  0  0  0
    1.9042    0.8377   -1.0639 C   0  0  0  0  0  0
    2.6841    1.2266   -2.1531 C   0  0  0  0  0  0
    2.1132    1.3172   -3.4226 C   0  0  0  0  0  0
    0.7625    1.0191   -3.6028 C   0  0  0  0  0  0
   -0.0173    0.6303   -2.5135 C   0  0  0  0  0  0
    0.5537    0.5397   -1.2440 C   0  0  0  0  0  0
   -0.2506    0.1438   -0.1525 N   0  0  0  0  0  0
   -1.6211    0.2991    0.1258 C   0  0  0  0  0  0
   -2.3531    0.9480   -0.7998 N   0  5  0  0  0  0
   -3.6621    1.0791   -0.5007 C   0  0  0  0  0  0
   -4.2361    0.5966    0.6578 C   0  0  0  0  0  0
   -3.3783   -0.0483    1.5252 C   0  0  0  0  0  0
   -2.0603   -0.2153    1.2903 N   0  3  0  0  0  0
   -3.8531   -0.5990    2.7720 C   0  0  0  0  0  0
   -3.3415   -0.1633    3.9893 C   0  0  0  0  0  0
   -3.8190   -0.7122    5.1742 C   0  0  0  0  0  0
   -4.8008   -1.6862    5.0884 C   0  0  0  0  0  0
   -5.3220   -2.1350    3.9246 N   0  0  0  0  0  0
   -4.8332   -1.5782    2.7938 C   0  0  0  0  0  0
    0.1684    1.1133   -4.9269 C   0  0  0  0  0  0
    0.6383    1.8558   -5.8001 O   0  0  0  0  0  0
   -0.9382    0.2775   -5.1432 N   0  0  0  0  0  0
   -1.7024    0.1156   -6.3263 C   0  0  0  0  0  0
   -1.3783    0.8442   -7.4709 C   0  0  0  0  0  0
   -2.1295    0.6842   -8.6353 C   0  0  0  0  0  0
   -3.2046   -0.2043   -8.6552 C   0  0  0  0  0  0
   -3.5286   -0.9328   -7.5106 C   0  0  0  0  0  0
   -2.7775   -0.7727   -6.3462 C   0  0  0  0  0  0
   -4.5946   -1.8134   -7.5304 N   0  0  0  0  0  0
   -5.0411   -2.5999   -6.4980 C   0  0  0  0  0  0
   -6.1270   -3.3517   -6.8803 C   0  0  0  0  0  0
   -6.3465   -3.0109   -8.1852 N   0  3  0  0  0  0
   -5.4018   -2.0853   -8.5316 C   0  0  0  0  0  0
   -6.9423   -4.3231   -6.1510 C   0  0  0  0  0  0
   -1.7831    1.4631   -9.8588 C   0  0  0  0  0  0
   -0.7099    2.2922   -9.6947 F   0  0  0  0  0  0
   -1.4675    0.6813  -10.9337 F   0  0  0  0  0  0
   -2.8047    2.2657  -10.2774 F   0  0  0  0  0  0
    3.6044    1.0229    0.2065 H   0  0  0  0  0  0
    2.4560   -0.2806    0.6634 H   0  0  0  0  0  0
    2.0351    1.4375    0.9762 H   0  0  0  0  0  0
    3.7373    1.4605   -2.0227 H   0  0  0  0  0  0
    2.7311    1.6194   -4.2643 H   0  0  0  0  0  0
   -1.0707    0.3974   -2.6543 H   0  0  0  0  0  0
   -4.2241    1.5575   -1.1755 H   0  0  0  0  0  0
   -5.2140    0.7255    0.8226 H   0  0  0  0  0  0
   -2.5712    0.6028    4.0298 H   0  0  0  0  0  0
   -3.4348   -0.3892    6.1348 H   0  0  0  0  0  0
   -5.2068   -2.1457    5.9840 H   0  0  0  0  0  0
   -5.2729   -1.9622    1.8776 H   0  0  0  0  0  0
   -1.3124   -0.3613   -4.3296 H   0  0  0  0  0  0
   -0.5397    1.5369   -7.4577 H   0  0  0  0  0  0
   -3.7882   -0.3262   -9.5653 H   0  0  0  0  0  0
   -3.0281   -1.3409   -5.4524 H   0  0  0  0  0  0
   -4.6837   -2.6750   -5.5671 H   0  0  0  0  0  0
   -5.3899   -1.7050   -9.4564 H   0  0  0  0  0  0
   -7.7287   -4.7130   -6.8140 H   0  0  0  0  0  0
   -7.4052   -3.8338   -5.2813 H   0  0  0  0  0  0
   -6.3060   -5.1528   -5.8093 H   0  0  0  0  0  0
   -7.1729   -3.4751   -8.7433 H   0  0  0  0  0  0
   -1.3578   -0.7248    1.9663 H   0  0  0  0  0  0
  1  2  1  0  0  0
  1 40  1  0  0  0
  1 41  1  0  0  0
  1 42  1  0  0  0
  2  7  2  0  0  0
  2  3  1  0  0  0
  3  4  2  0  0  0
  3 43  1  0  0  0
  4  5  1  0  0  0
  4 44  1  0  0  0
  5  6  2  0  0  0
  5 21  1  0  0  0
  6  7  1  0  0  0
  6 45  1  0  0  0
  7  8  1  0  0  0
  8  9  2  0  0  0
  9 14  1  0  0  0
  9 10  1  0  0  0
 10 11  1  0  0  0
 11 12  2  0  0  0
 11 46  1  0  0  0
 12 13  1  0  0  0
 12 47  1  0  0  0
 13 14  2  0  0  0
 13 15  1  0  0  0
 14 62  1  0  0  0
 15 20  2  0  0  0
 15 16  1  0  0  0
 16 17  2  0  0  0
 16 48  1  0  0  0
 17 18  1  0  0  0
 17 49  1  0  0  0
 18 19  2  0  0  0
 18 50  1  0  0  0
 19 20  1  0  0  0
 20 51  1  0  0  0
 21 22  2  0  0  0
 21 23  1  0  0  0
 23 24  1  0  0  0
 23 52  1  0  0  0
 24 29  2  0  0  0
 24 25  1  0  0  0
 25 26  2  0  0  0
 25 53  1  0  0  0
 26 27  1  0  0  0
 26 36  1  0  0  0
 27 28  2  0  0  0
 27 54  1  0  0  0
 28 29  1  0  0  0
 28 30  1  0  0  0
 29 55  1  0  0  0
 30 34  1  0  0  0
 30 31  1  0  0  0
 31 32  2  0  0  0
 31 56  1  0  0  0
 32 33  1  0  0  0
 32 35  1  0  0  0
 33 34  2  0  0  0
 33 61  1  0  0  0
 34 57  1  0  0  0
 35 58  1  0  0  0
 35 59  1  0  0  0
 35 60  1  0  0  0
 36 37  1  0  0  0
 36 38  1  0  0  0
 36 39  1  0  0  0
M  CHG  3  10  -1  14   1  33   1
M  END
> <s_m_source_file>
/Users/andrea/Development/mcce-charges/epik_inhibitors/output/Nilotinib/Nilotinib-input.mol2

> <i_m_source_file_index>
1

> <r_lp_tautomer_probability>
4.69999911640017e-08

> <r_epik_Ionization_Penalty>
  6.8963

> <r_epik_Ionization_Penalty_Charging>
  4.0723

> <r_epik_Ionization_Penalty_Neutral>
  2.8240

> <r_epik_State_Penalty>
 12.1992

> <i_epik_Tot_Q>
1

> <s_epik_Chemistry_Notes>
This compound has an imine and may undergo hydrolysis.

$$$$
4-methyl-~{N}-[3-(4-methylimidazol-1-yl)-5-(trifluoromethyl)phenyl]-3-[[4-(3-pyridyl)pyrimidin-2-yl]amino]benzamide
                    3D
 Structure written by MMmdl.
 62 66  0  0  1  0            999 V2000
    1.9571   -1.0275   -1.6049 C   0  0  0  0  0  0
    1.8851   -1.0363   -0.1124 C   0  0  0  0  0  0
    2.9210   -1.6309    0.6081 C   0  0  0  0  0  0
    2.8783   -1.6520    2.0022 C   0  0  0  0  0  0
    1.7997   -1.0786    2.6757 C   0  0  0  0  0  0
    0.7638   -0.4841    1.9551 C   0  0  0  0  0  0
    0.8066   -0.4630    0.5610 C   0  0  0  0  0  0
   -0.2506    0.1438   -0.1525 N   0  0  0  0  0  0
   -1.6211    0.2991    0.1258 C   0  0  0  0  0  0
   -2.3531    0.9480   -0.7998 N   0  5  0  0  0  0
   -3.6621    1.0791   -0.5007 C   0  0  0  0  0  0
   -4.2361    0.5966    0.6578 C   0  0  0  0  0  0
   -3.3783   -0.0483    1.5252 C   0  0  0  0  0  0
   -2.0603   -0.2153    1.2903 N   0  3  0  0  0  0
   -3.8531   -0.5990    2.7720 C   0  0  0  0  0  0
   -3.3415   -0.1633    3.9893 C   0  0  0  0  0  0
   -3.8190   -0.7122    5.1742 C   0  0  0  0  0  0
   -4.8008   -1.6862    5.0884 C   0  0  0  0  0  0
   -5.3220   -2.1350    3.9246 N   0  0  0  0  0  0
   -4.8332   -1.5782    2.7938 C   0  0  0  0  0  0
    1.7565   -1.1006    4.1292 C   0  0  0  0  0  0
    2.3550   -1.9642    4.7855 O   0  0  0  0  0  0
    1.0265   -0.0567    4.7185 N   0  0  0  0  0  0
    0.8314    0.2139    6.0964 C   0  0  0  0  0  0
    1.4065   -0.6166    7.0584 C   0  0  0  0  0  0
    1.2155   -0.3498    8.4141 C   0  0  0  0  0  0
    0.4494    0.7473    8.8079 C   0  0  0  0  0  0
   -0.1258    1.5777    7.8459 C   0  0  0  0  0  0
    0.0652    1.3109    6.4902 C   0  0  0  0  0  0
   -0.8854    2.6652    8.2364 N   0  0  0  0  0  0
   -1.5148    3.5736    7.4225 C   0  0  0  0  0  0
   -2.1803    4.5239    8.1604 C   0  0  0  0  0  0
   -1.9478    4.1816    9.4627 N   0  3  0  0  0  0
   -1.1656    3.0603    9.4584 C   0  0  0  0  0  0
   -2.9841    5.6787    7.7599 C   0  0  0  0  0  0
    1.8303   -1.2376    9.4424 C   0  0  0  0  0  0
    2.5519   -2.2701    8.9139 F   0  0  0  0  0  0
    2.6957   -0.5897   10.2775 F   0  0  0  0  0  0
    0.9022   -1.8193   10.2570 F   0  0  0  0  0  0
    2.8815   -1.5271   -1.9303 H   0  0  0  0  0  0
    1.9552    0.0116   -1.9659 H   0  0  0  0  0  0
    1.0876   -1.5605   -2.0171 H   0  0  0  0  0  0
    3.7656   -2.0799    0.0924 H   0  0  0  0  0  0
    3.6922   -2.1165    2.5532 H   0  0  0  0  0  0
   -0.0771   -0.0365    2.4806 H   0  0  0  0  0  0
   -4.2241    1.5575   -1.1755 H   0  0  0  0  0  0
   -5.2140    0.7255    0.8226 H   0  0  0  0  0  0
   -2.5712    0.6028    4.0298 H   0  0  0  0  0  0
   -3.4348   -0.3892    6.1348 H   0  0  0  0  0  0
   -5.2068   -2.1457    5.9840 H   0  0  0  0  0  0
   -5.2729   -1.9622    1.8776 H   0  0  0  0  0  0
    0.5146    0.6825    4.0848 H   0  0  0  0  0  0
    2.0051   -1.4721    6.7533 H   0  0  0  0  0  0
    0.3025    0.9520    9.8664 H   0  0  0  0  0  0
   -0.3819    1.9581    5.7381 H   0  0  0  0  0  0
   -1.5366    3.6107    6.4234 H   0  0  0  0  0  0
   -0.8803    2.6464   10.3228 H   0  0  0  0  0  0
   -3.3505    6.1992    8.6570 H   0  0  0  0  0  0
   -3.8398    5.3388    7.1580 H   0  0  0  0  0  0
   -2.3664    6.3663    7.1636 H   0  0  0  0  0  0
   -2.3746    4.7878   10.2753 H   0  0  0  0  0  0
   -1.3578   -0.7248    1.9663 H   0  0  0  0  0  0
  1  2  1  0  0  0
  1 40  1  0  0  0
  1 41  1  0  0  0
  1 42  1  0  0  0
  2  7  2  0  0  0
  2  3  1  0  0  0
  3  4  2  0  0  0
  3 43  1  0  0  0
  4  5  1  0  0  0
  4 44  1  0  0  0
  5  6  2  0  0  0
  5 21  1  0  0  0
  6  7  1  0  0  0
  6 45  1  0  0  0
  7  8  1  0  0  0
  8  9  2  0  0  0
  9 14  1  0  0  0
  9 10  1  0  0  0
 10 11  1  0  0  0
 11 12  2  0  0  0
 11 46  1  0  0  0
 12 13  1  0  0  0
 12 47  1  0  0  0
 13 14  2  0  0  0
 13 15  1  0  0  0
 14 62  1  0  0  0
 15 20  2  0  0  0
 15 16  1  0  0  0
 16 17  2  0  0  0
 16 48  1  0  0  0
 17 18  1  0  0  0
 17 49  1  0  0  0
 18 19  2  0  0  0
 18 50  1  0  0  0
 19 20  1  0  0  0
 20 51  1  0  0  0
 21 22  2  0  0  0
 21 23  1  0  0  0
 23 24  1  0  0  0
 23 52  1  0  0  0
 24 29  2  0  0  0
 24 25  1  0  0  0
 25 26  2  0  0  0
 25 53  1  0  0  0
 26 27  1  0  0  0
 26 36  1  0  0  0
 27 28  2  0  0  0
 27 54  1  0  0  0
 28 29  1  0  0  0
 28 30  1  0  0  0
 29 55  1  0  0  0
 30 34  1  0  0  0
 30 31  1  0  0  0
 31 32  2  0  0  0
 31 56  1  0  0  0
 32 33  1  0  0  0
 32 35  1  0  0  0
 33 34  2  0  0  0
 33 61  1  0  0  0
 34 57  1  0  0  0
 35 58  1  0  0  0
 35 59  1  0  0  0
 35 60  1  0  0  0
 36 37  1  0  0  0
 36 38  1  0  0  0
 36 39  1  0  0  0
M  CHG  3  10  -1  14   1  33   1
M  END
> <s_m_source_file>
/Users/andrea/Development/mcce-charges/epik_inhibitors/output/Nilotinib/Nilotinib-input.mol2

> <i_m_source_file_index>
1

> <r_lp_tautomer_probability>
4.69999911640017e-08

> <r_epik_Ionization_Penalty>
  6.8963

> <r_epik_Ionization_Penalty_Charging>
  4.0723

> <r_epik_Ionization_Penalty_Neutral>
  2.8240

> <r_epik_State_Penalty>
 12.1992

> <i_epik_Tot_Q>
1

> <s_epik_Chemistry_Notes>
This compound has an imine and may undergo hydrolysis.

$$$$
4-methyl-~{N}-[3-(4-methylimidazol-1-yl)-5-(trifluoromethyl)phenyl]-3-[[4-(3-pyridyl)pyrimidin-2-yl]amino]benzamide
                    3D
 Structure written by MMmdl.
 62 66  0  0  1  0            999 V2000
    1.9571   -1.0275   -1.6049 C   0  0  0  0  0  0
    1.8851   -1.0363   -0.1124 C   0  0  0  0  0  0
    2.9210   -1.6309    0.6081 C   0  0  0  0  0  0
    2.8783   -1.6520    2.0022 C   0  0  0  0  0  0
    1.7997   -1.0786    2.6757 C   0  0  0  0  0  0
    0.7638   -0.4841    1.9551 C   0  0  0  0  0  0
    0.8066   -0.4630    0.5610 C   0  0  0  0  0  0
   -0.2506    0.1438   -0.1525 N   0  0  0  0  0  0
   -1.6211    0.2991    0.1258 C   0  0  0  0  0  0
   -2.3535    0.9462   -0.8007 N   0  0  0  0  0  0
   -3.6625    1.0774   -0.5016 C   0  0  0  0  0  0
   -4.2363    0.5958    0.6574 C   0  0  0  0  0  0
   -3.3783   -0.0483    1.5252 C   0  0  0  0  0  0
   -2.0603   -0.2153    1.2903 N   0  0  0  0  0  0
   -3.8531   -0.5990    2.7720 C   0  0  0  0  0  0
   -3.3415   -0.1633    3.9893 C   0  0  0  0  0  0
   -3.8190   -0.7122    5.1742 C   0  0  0  0  0  0
   -4.8008   -1.6862    5.0884 C   0  0  0  0  0  0
   -5.3220   -2.1350    3.9246 N   0  0  0  0  0  0
   -4.8332   -1.5782    2.7938 C   0  0  0  0  0  0
    1.7565   -1.1006    4.1292 C   0  0  0  0  0  0
    2.3550   -1.9642    4.7855 O   0  3  0  0  0  0
    1.0265   -0.0567    4.7185 N   0  0  0  0  0  0
    0.8314    0.2139    6.0964 C   0  0  0  0  0  0
    1.4065   -0.6166    7.0584 C   0  0  0  0  0  0
    1.2155   -0.3498    8.4141 C   0  0  0  0  0  0
    0.4494    0.7473    8.8079 C   0  0  0  0  0  0
   -0.1258    1.5777    7.8459 C   0  0  0  0  0  0
    0.0652    1.3109    6.4902 C   0  0  0  0  0  0
   -0.8854    2.6652    8.2364 N   0  0  0  0  0  0
   -1.5148    3.5736    7.4225 C   0  0  0  0  0  0
   -2.1803    4.5239    8.1604 C   0  0  0  0  0  0
   -1.9478    4.1816    9.4627 N   0  0  0  0  0  0
   -1.1656    3.0603    9.4584 C   0  0  0  0  0  0
   -2.9841    5.6787    7.7599 C   0  0  0  0  0  0
    1.8303   -1.2376    9.4424 C   0  0  0  0  0  0
    2.5519   -2.2701    8.9139 F   0  0  0  0  0  0
    2.6957   -0.5897   10.2775 F   0  0  0  0  0  0
    0.9022   -1.8193   10.2570 F   0  0  0  0  0  0
    2.8815   -1.5271   -1.9303 H   0  0  0  0  0  0
    1.9552    0.0116   -1.9659 H   0  0  0  0  0  0
    1.0876   -1.5605   -2.0171 H   0  0  0  0  0  0
    3.7656   -2.0799    0.0924 H   0  0  0  0  0  0
    3.6922   -2.1165    2.5532 H   0  0  0  0  0  0
   -0.0771   -0.0365    2.4806 H   0  0  0  0  0  0
   -0.0573    0.6133   -1.1283 H   0  0  0  0  0  0
   -4.2577    1.5979   -1.2444 H   0  0  0  0  0  0
   -5.2927    0.7225    0.8587 H   0  0  0  0  0  0
   -2.5712    0.6028    4.0298 H   0  0  0  0  0  0
   -3.4348   -0.3891    6.1348 H   0  0  0  0  0  0
   -5.2068   -2.1456    5.9840 H   0  0  0  0  0  0
   -5.2729   -1.9622    1.8776 H   0  0  0  0  0  0
    0.5146    0.6825    4.0848 H   0  0  0  0  0  0
    2.0051   -1.4721    6.7533 H   0  0  0  0  0  0
    0.3025    0.9520    9.8664 H   0  0  0  0  0  0
   -0.3819    1.9581    5.7381 H   0  0  0  0  0  0
   -1.4382    3.4700    6.3473 H   0  0  0  0  0  0
   -0.8310    2.5754   10.3671 H   0  0  0  0  0  0
   -3.3505    6.1992    8.6570 H   0  0  0  0  0  0
   -3.8398    5.3388    7.1580 H   0  0  0  0  0  0
   -2.3664    6.3663    7.1636 H   0  0  0  0  0  0
    2.3031   -1.9542    5.8842 H   0  0  0  0  0  0
  1  2  1  0  0  0
  1 40  1  0  0  0
  1 41  1  0  0  0
  1 42  1  0  0  0
  2  7  2  0  0  0
  2  3  1  0  0  0
  3  4  2  0  0  0
  3 43  1  0  0  0
  4  5  1  0  0  0
  4 44  1  0  0  0
  5  6  2  0  0  0
  5 21  1  0  0  0
  6  7  1  0  0  0
  6 45  1  0  0  0
  7  8  1  0  0  0
  8  9  1  0  0  0
  8 46  1  0  0  0
  9 14  2  0  0  0
  9 10  1  0  0  0
 10 11  2  0  0  0
 11 12  1  0  0  0
 11 47  1  0  0  0
 12 13  2  0  0  0
 12 48  1  0  0  0
 13 14  1  0  0  0
 13 15  1  0  0  0
 15 20  2  0  0  0
 15 16  1  0  0  0
 16 17  2  0  0  0
 16 49  1  0  0  0
 17 18  1  0  0  0
 17 50  1  0  0  0
 18 19  2  0  0  0
 18 51  1  0  0  0
 19 20  1  0  0  0
 20 52  1  0  0  0
 21 22  2  0  0  0
 21 23  1  0  0  0
 22 62  1  0  0  0
 23 24  1  0  0  0
 23 53  1  0  0  0
 24 29  2  0  0  0
 24 25  1  0  0  0
 25 26  2  0  0  0
 25 54  1  0  0  0
 26 27  1  0  0  0
 26 36  1  0  0  0
 27 28  2  0  0  0
 27 55  1  0  0  0
 28 29  1  0  0  0
 28 30  1  0  0  0
 29 56  1  0  0  0
 30 34  1  0  0  0
 30 31  1  0  0  0
 31 32  2  0  0  0
 31 57  1  0  0  0
 32 33  1  0  0  0
 32 35  1  0  0  0
 33 34  2  0  0  0
 34 58  1  0  0  0
 35 59  1  0  0  0
 35 60  1  0  0  0
 35 61  1  0  0  0
 36 37  1  0  0  0
 36 38  1  0  0  0
 36 39  1  0  0  0
M  CHG  1  22   1
M  END
> <s_m_source_file>
/Users/andrea/Development/mcce-charges/epik_inhibitors/output/Nilotinib/Nilotinib-input.mol2

> <i_m_source_file_index>
1

> <r_epik_Ionization_Penalty>
  8.6889

> <r_epik_Ionization_Penalty_Charging>
  8.6887

> <r_epik_Ionization_Penalty_Neutral>
  0.0002

> <r_epik_State_Penalty>
 12.2353

> <i_epik_Tot_Q>
1

$$$$
4-methyl-~{N}-[3-(4-methylimidazol-1-yl)-5-(trifluoromethyl)phenyl]-3-[[4-(3-pyridyl)pyrimidin-2-yl]amino]benzamide
                    3D
 Structure written by MMmdl.
 63 67  0  0  1  0            999 V2000
    1.9571   -1.0275   -1.6049 C   0  0  0  0  0  0
    1.8851   -1.0363   -0.1124 C   0  0  0  0  0  0
    2.9210   -1.6309    0.6081 C   0  0  0  0  0  0
    2.8783   -1.6520    2.0022 C   0  0  0  0  0  0
    1.7997   -1.0786    2.6757 C   0  0  0  0  0  0
    0.7638   -0.4841    1.9551 C   0  0  0  0  0  0
    0.8066   -0.4630    0.5610 C   0  0  0  0  0  0
   -0.2506    0.1438   -0.1525 N   0  0  0  0  0  0
   -1.6211    0.2991    0.1258 C   0  0  0  0  0  0
   -2.3535    0.9462   -0.8007 N   0  3  0  0  0  0
   -3.6625    1.0774   -0.5016 C   0  0  0  0  0  0
   -4.2363    0.5958    0.6574 C   0  0  0  0  0  0
   -3.3783   -0.0483    1.5252 C   0  0  0  0  0  0
   -2.0603   -0.2153    1.2903 N   0  0  0  0  0  0
   -3.8531   -0.5990    2.7720 C   0  0  0  0  0  0
   -3.3415   -0.1633    3.9893 C   0  0  0  0  0  0
   -3.8190   -0.7122    5.1742 C   0  0  0  0  0  0
   -4.8008   -1.6862    5.0884 C   0  0  0  0  0  0
   -5.3220   -2.1350    3.9246 N   0  0  0  0  0  0
   -4.8332   -1.5782    2.7938 C   0  0  0  0  0  0
    1.7565   -1.1006    4.1292 C   0  0  0  0  0  0
    2.3550   -1.9642    4.7855 O   0  0  0  0  0  0
    1.0265   -0.0567    4.7185 N   0  0  0  0  0  0
    0.8314    0.2139    6.0964 C   0  0  0  0  0  0
    1.4065   -0.6166    7.0584 C   0  0  0  0  0  0
    1.2155   -0.3498    8.4141 C   0  0  0  0  0  0
    0.4494    0.7473    8.8079 C   0  0  0  0  0  0
   -0.1258    1.5777    7.8459 C   0  0  0  0  0  0
    0.0652    1.3109    6.4902 C   0  0  0  0  0  0
   -0.8854    2.6652    8.2364 N   0  0  0  0  0  0
   -1.5148    3.5736    7.4225 C   0  0  0  0  0  0
   -2.1803    4.5239    8.1604 C   0  0  0  0  0  0
   -1.9478    4.1816    9.4627 N   0  3  0  0  0  0
   -1.1656    3.0603    9.4584 C   0  0  0  0  0  0
   -2.9841    5.6787    7.7599 C   0  0  0  0  0  0
    1.8303   -1.2376    9.4424 C   0  0  0  0  0  0
    2.5519   -2.2701    8.9139 F   0  0  0  0  0  0
    2.6957   -0.5897   10.2775 F   0  0  0  0  0  0
    0.9022   -1.8193   10.2570 F   0  0  0  0  0  0
    2.8815   -1.5271   -1.9303 H   0  0  0  0  0  0
    1.9552    0.0116   -1.9659 H   0  0  0  0  0  0
    1.0876   -1.5605   -2.0171 H   0  0  0  0  0  0
    3.7656   -2.0799    0.0924 H   0  0  0  0  0  0
    3.6922   -2.1165    2.5532 H   0  0  0  0  0  0
   -0.0771   -0.0365    2.4806 H   0  0  0  0  0  0
   -0.0573    0.6133   -1.1283 H   0  0  0  0  0  0
   -4.2577    1.5979   -1.2444 H   0  0  0  0  0  0
   -5.2927    0.7225    0.8587 H   0  0  0  0  0  0
   -2.5712    0.6028    4.0298 H   0  0  0  0  0  0
   -3.4348   -0.3891    6.1348 H   0  0  0  0  0  0
   -5.2068   -2.1456    5.9840 H   0  0  0  0  0  0
   -5.2729   -1.9622    1.8776 H   0  0  0  0  0  0
    0.5146    0.6825    4.0848 H   0  0  0  0  0  0
    2.0051   -1.4721    6.7533 H   0  0  0  0  0  0
    0.3025    0.9520    9.8664 H   0  0  0  0  0  0
   -0.3819    1.9581    5.7381 H   0  0  0  0  0  0
   -1.4382    3.4700    6.3473 H   0  0  0  0  0  0
   -0.8310    2.5754   10.3671 H   0  0  0  0  0  0
   -3.3505    6.1992    8.6570 H   0  0  0  0  0  0
   -3.8398    5.3388    7.1580 H   0  0  0  0  0  0
   -2.3664    6.3663    7.1636 H   0  0  0  0  0  0
   -2.3746    4.7878   10.2753 H   0  0  0  0  0  0
   -1.8742    1.3213   -1.7170 H   0  0  0  0  0  0
  1  2  1  0  0  0
  1 40  1  0  0  0
  1 41  1  0  0  0
  1 42  1  0  0  0
  2  7  2  0  0  0
  2  3  1  0  0  0
  3  4  2  0  0  0
  3 43  1  0  0  0
  4  5  1  0  0  0
  4 44  1  0  0  0
  5  6  2  0  0  0
  5 21  1  0  0  0
  6  7  1  0  0  0
  6 45  1  0  0  0
  7  8  1  0  0  0
  8  9  1  0  0  0
  8 46  1  0  0  0
  9 14  2  0  0  0
  9 10  1  0  0  0
 10 11  2  0  0  0
 10 63  1  0  0  0
 11 12  1  0  0  0
 11 47  1  0  0  0
 12 13  2  0  0  0
 12 48  1  0  0  0
 13 14  1  0  0  0
 13 15  1  0  0  0
 15 20  2  0  0  0
 15 16  1  0  0  0
 16 17  2  0  0  0
 16 49  1  0  0  0
 17 18  1  0  0  0
 17 50  1  0  0  0
 18 19  2  0  0  0
 18 51  1  0  0  0
 19 20  1  0  0  0
 20 52  1  0  0  0
 21 22  2  0  0  0
 21 23  1  0  0  0
 23 24  1  0  0  0
 23 53  1  0  0  0
 24 29  2  0  0  0
 24 25  1  0  0  0
 25 26  2  0  0  0
 25 54  1  0  0  0
 26 27  1  0  0  0
 26 36  1  0  0  0
 27 28  2  0  0  0
 27 55  1  0  0  0
 28 29  1  0  0  0
 28 30  1  0  0  0
 29 56  1  0  0  0
 30 34  1  0  0  0
 30 31  1  0  0  0
 31 32  2  0  0  0
 31 57  1  0  0  0
 32 33  1  0  0  0
 32 35  1  0  0  0
 33 34  2  0  0  0
 33 62  1  0  0  0
 34 58  1  0  0  0
 35 59  1  0  0  0
 35 60  1  0  0  0
 35 61  1  0  0  0
 36 37  1  0  0  0
 36 38  1  0  0  0
 36 39  1  0  0  0
M  CHG  2  10   1  33   1
M  END
> <s_m_source_file>
/Users/andrea/Development/mcce-charges/epik_inhibitors/output/Nilotinib/Nilotinib-input.mol2

> <i_m_source_file_index>
1

> <r_epik_Ionization_Penalty>
  7.2156

> <r_epik_Ionization_Penalty_Charging>
  5.8827

> <r_epik_Ionization_Penalty_Neutral>
  1.3329

> <r_epik_State_Penalty>
 13.0446

> <i_epik_Tot_Q>
2

$$$$
4-methyl-~{N}-[3-(4-methylimidazol-1-yl)-5-(trifluoromethyl)phenyl]-3-[[4-(3-pyridyl)pyrimidin-2-yl]amino]benzamide
                    3D
 Structure written by MMmdl.
 63 67  0  0  1  0            999 V2000
    1.9571   -1.0275   -1.6049 C   0  0  0  0  0  0
    1.8851   -1.0363   -0.1124 C   0  0  0  0  0  0
    2.9210   -1.6309    0.6081 C   0  0  0  0  0  0
    2.8783   -1.6520    2.0022 C   0  0  0  0  0  0
    1.7997   -1.0786    2.6757 C   0  0  0  0  0  0
    0.7638   -0.4841    1.9551 C   0  0  0  0  0  0
    0.8066   -0.4630    0.5610 C   0  0  0  0  0  0
   -0.2506    0.1438   -0.1525 N   0  0  0  0  0  0
   -1.6211    0.2991    0.1258 C   0  0  0  0  0  0
   -2.3535    0.9462   -0.8007 N   0  0  0  0  0  0
   -3.6625    1.0774   -0.5016 C   0  0  0  0  0  0
   -4.2363    0.5958    0.6574 C   0  0  0  0  0  0
   -3.3783   -0.0483    1.5252 C   0  0  0  0  0  0
   -2.0603   -0.2153    1.2903 N   0  0  0  0  0  0
   -3.8531   -0.5990    2.7720 C   0  0  0  0  0  0
   -3.3415   -0.1633    3.9893 C   0  0  0  0  0  0
   -3.8190   -0.7122    5.1742 C   0  0  0  0  0  0
   -4.8008   -1.6862    5.0884 C   0  0  0  0  0  0
   -5.3220   -2.1350    3.9246 N   0  0  0  0  0  0
   -4.8332   -1.5782    2.7938 C   0  0  0  0  0  0
    1.7565   -1.1006    4.1292 C   0  0  0  0  0  0
    2.3550   -1.9642    4.7855 O   0  3  0  0  0  0
    1.0265   -0.0567    4.7185 N   0  0  0  0  0  0
    0.8314    0.2139    6.0964 C   0  0  0  0  0  0
    1.4065   -0.6166    7.0584 C   0  0  0  0  0  0
    1.2155   -0.3498    8.4141 C   0  0  0  0  0  0
    0.4494    0.7473    8.8079 C   0  0  0  0  0  0
   -0.1258    1.5777    7.8459 C   0  0  0  0  0  0
    0.0652    1.3109    6.4902 C   0  0  0  0  0  0
   -0.8854    2.6652    8.2364 N   0  0  0  0  0  0
   -1.5148    3.5736    7.4225 C   0  0  0  0  0  0
   -2.1803    4.5239    8.1604 C   0  0  0  0  0  0
   -1.9478    4.1816    9.4627 N   0  3  0  0  0  0
   -1.1656    3.0603    9.4584 C   0  0  0  0  0  0
   -2.9841    5.6787    7.7599 C   0  0  0  0  0  0
    1.8303   -1.2376    9.4424 C   0  0  0  0  0  0
    2.5519   -2.2701    8.9139 F   0  0  0  0  0  0
    2.6957   -0.5897   10.2775 F   0  0  0  0  0  0
    0.9022   -1.8193   10.2570 F   0  0  0  0  0  0
    2.8815   -1.5271   -1.9303 H   0  0  0  0  0  0
    1.9552    0.0116   -1.9659 H   0  0  0  0  0  0
    1.0876   -1.5605   -2.0171 H   0  0  0  0  0  0
    3.7656   -2.0799    0.0924 H   0  0  0  0  0  0
    3.6922   -2.1165    2.5532 H   0  0  0  0  0  0
   -0.0771   -0.0365    2.4806 H   0  0  0  0  0  0
   -0.0573    0.6133   -1.1283 H   0  0  0  0  0  0
   -4.2577    1.5979   -1.2444 H   0  0  0  0  0  0
   -5.2927    0.7225    0.8587 H   0  0  0  0  0  0
   -2.5712    0.6028    4.0298 H   0  0  0  0  0  0
   -3.4348   -0.3891    6.1348 H   0  0  0  0  0  0
   -5.2068   -2.1456    5.9840 H   0  0  0  0  0  0
   -5.2729   -1.9622    1.8776 H   0  0  0  0  0  0
    0.5146    0.6825    4.0848 H   0  0  0  0  0  0
    2.0051   -1.4721    6.7533 H   0  0  0  0  0  0
    0.3025    0.9520    9.8664 H   0  0  0  0  0  0
   -0.3819    1.9581    5.7381 H   0  0  0  0  0  0
   -1.4382    3.4700    6.3473 H   0  0  0  0  0  0
   -0.8310    2.5754   10.3671 H   0  0  0  0  0  0
   -3.3505    6.1992    8.6570 H   0  0  0  0  0  0
   -3.8398    5.3388    7.1580 H   0  0  0  0  0  0
   -2.3664    6.3663    7.1636 H   0  0  0  0  0  0
   -2.3746    4.7878   10.2753 H   0  0  0  0  0  0
    2.3031   -1.9542    5.8842 H   0  0  0  0  0  0
  1  2  1  0  0  0
  1 40  1  0  0  0
  1 41  1  0  0  0
  1 42  1  0  0  0
  2  7  2  0  0  0
  2  3  1  0  0  0
  3  4  2  0  0  0
  3 43  1  0  0  0
  4  5  1  0  0  0
  4 44  1  0  0  0
  5  6  2  0  0  0
  5 21  1  0  0  0
  6  7  1  0  0  0
  6 45  1  0  0  0
  7  8  1  0  0  0
  8  9  1  0  0  0
  8 46  1  0  0  0
  9 14  2  0  0  0
  9 10  1  0  0  0
 10 11  2  0  0  0
 11 12  1  0  0  0
 11 47  1  0  0  0
 12 13  2  0  0  0
 12 48  1  0  0  0
 13 14  1  0  0  0
 13 15  1  0  0  0
 15 20  2  0  0  0
 15 16  1  0  0  0
 16 17  2  0  0  0
 16 49  1  0  0  0
 17 18  1  0  0  0
 17 50  1  0  0  0
 18 19  2  0  0  0
 18 51  1  0  0  0
 19 20  1  0  0  0
 20 52  1  0  0  0
 21 22  2  0  0  0
 21 23  1  0  0  0
 22 63  1  0  0  0
 23 24  1  0  0  0
 23 53  1  0  0  0
 24 29  2  0  0  0
 24 25  1  0  0  0
 25 26  2  0  0  0
 25 54  1  0  0  0
 26 27  1  0  0  0
 26 36  1  0  0  0
 27 28  2  0  0  0
 27 55  1  0  0  0
 28 29  1  0  0  0
 28 30  1  0  0  0
 29 56  1  0  0  0
 30 34  1  0  0  0
 30 31  1  0  0  0
 31 32  2  0  0  0
 31 57  1  0  0  0
 32 33  1  0  0  0
 32 35  1  0  0  0
 33 34  2  0  0  0
 33 62  1  0  0  0
 34 58  1  0  0  0
 35 59  1  0  0  0
 35 60  1  0  0  0
 35 61  1  0  0  0
 36 37  1  0  0  0
 36 38  1  0  0  0
 36 39  1  0  0  0
M  CHG  2  22   1  33   1
M  END
> <s_m_source_file>
/Users/andrea/Development/mcce-charges/epik_inhibitors/output/Nilotinib/Nilotinib-input.mol2

> <i_m_source_file_index>
1

> <r_epik_Ionization_Penalty>
  9.9499

> <r_epik_Ionization_Penalty_Charging>
  8.6221

> <r_epik_Ionization_Penalty_Neutral>
  1.3279

> <r_epik_State_Penalty>
 13.5472

> <i_epik_Tot_Q>
2

$$$$
