@<TRIPOS>MOLECULE
(2~{S})-2-amino-3-(1~{H}-imidazol-4-yl)propanoic acid
   20    20     0     0     0
SMALL
USER_CHARGES

@<TRIPOS>ATOM
      1 O1          0.0386   -3.7692    1.2233 O.2       1 HIS        -0.5707
      2 C1          1.0816   -3.2076    0.9049 C.2       1 HIS         0.5822
      3 C2          1.1716   -1.7099    0.6517 C.3       1 HIS         0.1335
      4 H1          1.9640   -1.5591   -0.0905 H         1 HIS         0.1033
      5 C3          1.4847   -0.9748    1.9614 C.3       1 HIS        -0.0834
      6 C4          2.9408   -1.0603    2.3513 C.2       1 HIS         0.3012
      7 C5          4.0146   -0.2531    2.0581 C.2       1 HIS        -0.2308
      8 N1          5.1646   -0.7286    2.6369 N.pl3     1 HIS        -0.3211
      9 C6          4.7929   -1.8151    3.2767 C.2       1 HIS         0.3860
     10 N2          3.4550   -2.0567    3.1322 N.2       1 HIS        -0.6599
     11 N3         -0.0404   -1.2102    0.0523 N.3       1 HIS        -0.8866
     12 O2          2.2452   -3.8825    0.7450 O.3       1 HIS        -0.5887
     13 H2          1.2164    0.0869    1.8784 H         1 HIS         0.0660
     14 H3          0.8594   -1.3680    2.7746 H         1 HIS         0.0660
     15 H4          4.0630    0.6508    1.4664 H         1 HIS         0.1773
     16 H5          6.0852   -0.3130    2.5718 H         1 HIS         0.3004
     17 H6          5.4534   -2.4496    3.8518 H         1 HIS         0.0606
     18 H7         -0.8199   -0.9817    0.6457 H         1 HIS         0.3604
     19 H8         -0.1611   -1.2899   -0.9432 H         1 HIS         0.3604
     20 H9          3.0117   -3.3273    0.4896 H         1 HIS         0.4438
@<TRIPOS>BOND
     1    1    2 2
     2    2    3 1
     3    3    4 1
     4    3    5 1
     5    5    6 1
     6    6   10 1
     7    6    7 2
     8    7    8 1
     9    8    9 1
    10    9   10 2
    11    3   11 1
    12    2   12 1
    13    5   13 1
    14    5   14 1
    15    7   15 1
    16    8   16 1
    17    9   17 1
    18   11   18 1
    19   11   19 1
    20   12   20 1
