@<TRIPOS>MOLECULE
(2~{S})-2-amino-3-(1~{H}-imidazol-4-yl)propanoic acid
20   20    1
SMALL
USER_CHARGES


@<TRIPOS>ATOM
      1 O1          0.0386   -3.7692    1.2233 O.co2     1 HISS       -0.5707 
      2 C1          1.0816   -3.2076    0.9049 C.2       1 HISS        0.5822 
      3 C2          1.1716   -1.7099    0.6517 C.3       1 HISS        0.1334 
      4 H1          1.9456   -1.5041   -0.1024 H         1 HISS        0.1033 
      5 C3          1.4847   -0.9748    1.9614 C.3       1 HISS       -0.0833 
      6 C4          2.9408   -1.0603    2.3513 C.ar      1 HISS        0.3012 
      7 C5          4.0146   -0.2531    2.0581 C.ar      1 HISS       -0.2308 
      8 N1          5.1646   -0.7286    2.6369 N.2       1 HISS       -0.3211 
      9 C6          4.7925   -1.8140    3.2783 C.ar      1 HISS        0.3860 
     10 N2          3.4548   -2.0560    3.1332 N.pl3     1 HISS       -0.6599 
     11 N3         -0.0404   -1.2102    0.0523 N.4       1 HISS       -0.8866 
     12 O2          2.2452   -3.8825    0.7450 O.co2     1 HISS       -0.5887 
     13 H2          1.2291    0.0897    1.8545 H         1 HISS        0.0660 
     14 H3          0.8934   -1.4136    2.7786 H         1 HISS        0.0660 
     15 H4          3.8888    0.5590    1.4883 H         1 HISS        0.1773 
     16 H5          2.7972   -2.8517    3.5133 H         1 HISS        0.3004 
     17 H6          5.4656   -2.3478    3.7902 H         1 HISS        0.0606 
     18 H7          0.0543   -0.1277   -0.1184 H         1 HISS        0.3604 
     19 H8         -0.8887   -1.4024    0.7256 H         1 HISS        0.3604 
     20 H20        -0.2116   -1.7192   -0.9077 H         1 HISS        0.0000 
@<TRIPOS>BOND
     1    1    2 2    
     2    2    3 1    
     3    2   12 1    
     4    3    4 1    
     5    3    5 1    
     6    3   11 1    
     7    5   13 1    
     8    5   14 1    
     9    5    6 1    
    10    6    7 ar   
    11    6   10 ar   
    12    7   15 1    
    13    7    8 ar   
    14    8    9 ar   
    15    9   10 ar   
    16    9   17 1    
    17   10   16 1    
    18   11   18 1    
    19   11   19 1    
    20   11   20 1    
@<TRIPOS>SUBSTRUCTURE
     1 HISS        1 GROUP             0       ****    0 ROOT    
@<TRIPOS>MOLECULE
(2~{S})-2-amino-3-(1~{H}-imidazol-4-yl)propanoic acid
20   20    1
SMALL
USER_CHARGES


@<TRIPOS>ATOM
      1 O1          0.0386   -3.7692    1.2233 O.co2     1 HISS       -0.5707 
      2 C1          1.0816   -3.2076    0.9049 C.2       1 HISS        0.5822 
      3 C2          1.1716   -1.7099    0.6517 C.3       1 HISS        0.1334 
      4 H1          1.9456   -1.5041   -0.1024 H         1 HISS        0.1033 
      5 C3          1.4847   -0.9748    1.9614 C.3       1 HISS       -0.0833 
      6 C4          2.9408   -1.0603    2.3513 C.ar      1 HISS        0.3012 
      7 C5          4.0146   -0.2531    2.0581 C.ar      1 HISS       -0.2308 
      8 N1          5.1646   -0.7286    2.6369 N.pl3     1 HISS       -0.3211 
      9 C6          4.7929   -1.8151    3.2767 C.ar      1 HISS        0.3860 
     10 N2          3.4550   -2.0567    3.1322 N.2       1 HISS       -0.6599 
     11 N3         -0.0404   -1.2102    0.0523 N.4       1 HISS       -0.8866 
     12 O2          2.2452   -3.8825    0.7450 O.co2     1 HISS       -0.5887 
     13 H2          1.2291    0.0897    1.8545 H         1 HISS        0.0660 
     14 H3          0.8934   -1.4136    2.7786 H         1 HISS        0.0660 
     15 H4          4.0630    0.6508    1.4664 H         1 HISS        0.1773 
     16 H5          6.1142   -0.1919    2.4952 H         1 HISS        0.3004 
     17 H6          5.4534   -2.4496    3.8518 H         1 HISS        0.0606 
     18 H7          0.0543   -0.1277   -0.1184 H         1 HISS        0.3604 
     19 H8         -0.8887   -1.4024    0.7256 H         1 HISS        0.3604 
     20 H20        -0.2116   -1.7192   -0.9077 H         1 HISS        0.0000 
@<TRIPOS>BOND
     1    1    2 2    
     2    2    3 1    
     3    2   12 1    
     4    3    4 1    
     5    3    5 1    
     6    3   11 1    
     7    5    6 1    
     8    5   13 1    
     9    5   14 1    
    10    6   10 ar   
    11    6    7 ar   
    12    7    8 ar   
    13    7   15 1    
    14    8    9 ar   
    15    8   16 1    
    16    9   10 ar   
    17    9   17 1    
    18   11   18 1    
    19   11   19 1    
    20   11   20 1    
@<TRIPOS>SUBSTRUCTURE
     1 HISS        1 GROUP             0       ****    0 ROOT    
@<TRIPOS>MOLECULE
(2~{S})-2-amino-3-(1~{H}-imidazol-4-yl)propanoic acid
19   19    1
SMALL
USER_CHARGES


@<TRIPOS>ATOM
      1 O1          0.0386   -3.7692    1.2233 O.co2     1 HISS       -0.5707 
      2 C1          1.0816   -3.2076    0.9049 C.2       1 HISS        0.5822 
      3 C2          1.1716   -1.7099    0.6517 C.3       1 HISS        0.1334 
      4 H1          1.9456   -1.5041   -0.1024 H         1 HISS        0.1033 
      5 C3          1.4847   -0.9748    1.9614 C.3       1 HISS       -0.0833 
      6 C4          2.9408   -1.0603    2.3513 C.ar      1 HISS        0.3012 
      7 C5          4.0146   -0.2531    2.0581 C.ar      1 HISS       -0.2308 
      8 N1          5.1646   -0.7286    2.6369 N.2       1 HISS       -0.3211 
      9 C6          4.7925   -1.8140    3.2783 C.ar      1 HISS        0.3860 
     10 N2          3.4548   -2.0560    3.1332 N.pl3     1 HISS       -0.6599 
     11 N3         -0.0404   -1.2102    0.0523 N.3       1 HISS       -0.8866 
     12 O2          2.2452   -3.8825    0.7450 O.co2     1 HISS       -0.5887 
     13 H2          1.2291    0.0897    1.8545 H         1 HISS        0.0660 
     14 H3          0.8934   -1.4136    2.7786 H         1 HISS        0.0660 
     15 H4          3.8888    0.5590    1.4883 H         1 HISS        0.1773 
     16 H5          2.7972   -2.8517    3.5133 H         1 HISS        0.3004 
     17 H6          5.4656   -2.3478    3.7902 H         1 HISS        0.0606 
     18 H7          0.0543   -0.1277   -0.1184 H         1 HISS        0.3604 
     19 H8         -0.2116   -1.7192   -0.9077 H         1 HISS        0.3604 
@<TRIPOS>BOND
     1    1    2 2    
     2    2    3 1    
     3    2   12 1    
     4    3    4 1    
     5    3    5 1    
     6    3   11 1    
     7    5   13 1    
     8    5   14 1    
     9    5    6 1    
    10    6    7 ar   
    11    6   10 ar   
    12    7   15 1    
    13    7    8 ar   
    14    8    9 ar   
    15    9   10 ar   
    16    9   17 1    
    17   10   16 1    
    18   11   18 1    
    19   11   19 1    
@<TRIPOS>SUBSTRUCTURE
     1 HISS        1 GROUP             0       ****    0 ROOT    
@<TRIPOS>MOLECULE
(2~{S})-2-amino-3-(1~{H}-imidazol-4-yl)propanoic acid
21   21    1
SMALL
USER_CHARGES


@<TRIPOS>ATOM
      1 O1          0.0386   -3.7692    1.2233 O.co2     1 HISS       -0.5707 
      2 C1          1.0816   -3.2076    0.9049 C.2       1 HISS        0.5822 
      3 C2          1.1716   -1.7099    0.6517 C.3       1 HISS        0.1334 
      4 H1          1.9456   -1.5041   -0.1024 H         1 HISS        0.1033 
      5 C3          1.4847   -0.9748    1.9614 C.3       1 HISS       -0.0833 
      6 C4          2.9408   -1.0603    2.3513 C.ar      1 HISS        0.3012 
      7 C5          4.0146   -0.2531    2.0581 C.ar      1 HISS       -0.2308 
      8 N1          5.1646   -0.7286    2.6369 N.pl3     1 HISS       -0.3211 
      9 C6          4.7925   -1.8140    3.2783 C.ar      1 HISS        0.3860 
     10 N2          3.4548   -2.0560    3.1332 N.pl3     1 HISS       -0.6599 
     11 N3         -0.0404   -1.2102    0.0523 N.4       1 HISS       -0.8866 
     12 O2          2.2452   -3.8825    0.7450 O.co2     1 HISS       -0.5887 
     13 H2          1.2291    0.0897    1.8545 H         1 HISS        0.0660 
     14 H3          0.8934   -1.4136    2.7786 H         1 HISS        0.0660 
     15 H4          3.8888    0.5590    1.4883 H         1 HISS        0.1773 
     16 H5          2.7972   -2.8517    3.5133 H         1 HISS        0.3004 
     17 H6          5.4656   -2.3478    3.7902 H         1 HISS        0.0606 
     18 H7          0.0543   -0.1277   -0.1184 H         1 HISS        0.3604 
     19 H8         -0.8887   -1.4024    0.7256 H         1 HISS        0.3604 
     20 H20        -0.2116   -1.7192   -0.9077 H         1 HISS        0.0000 
     21 H21         6.2167   -0.4086    2.6616 H         1 HISS        0.0000 
@<TRIPOS>BOND
     1    1    2 2    
     2    2    3 1    
     3    2   12 1    
     4    3    4 1    
     5    3    5 1    
     6    3   11 1    
     7    5   13 1    
     8    5   14 1    
     9    5    6 1    
    10    6    7 ar   
    11    6   10 ar   
    12    7   15 1    
    13    7    8 ar   
    14    8    9 ar   
    15    8   21 1    
    16    9   10 ar   
    17    9   17 1    
    18   10   16 1    
    19   11   18 1    
    20   11   19 1    
    21   11   20 1    
@<TRIPOS>SUBSTRUCTURE
     1 HISS        1 GROUP             0       ****    0 ROOT    
@<TRIPOS>MOLECULE
(2~{S})-2-amino-3-(1~{H}-imidazol-4-yl)propanoic acid
20   20    1
SMALL
USER_CHARGES


@<TRIPOS>ATOM
      1 O1          0.0386   -3.7692    1.2233 O.co2     1 HISS       -0.5707 
      2 C1          1.0816   -3.2076    0.9049 C.2       1 HISS        0.5822 
      3 C2          1.1716   -1.7099    0.6517 C.3       1 HISS        0.1334 
      4 H1          1.9456   -1.5041   -0.1024 H         1 HISS        0.1033 
      5 C3          1.4847   -0.9748    1.9614 C.3       1 HISS       -0.0833 
      6 C4          2.9408   -1.0603    2.3513 C.ar      1 HISS        0.3012 
      7 C5          4.0146   -0.2531    2.0581 C.ar      1 HISS       -0.2308 
      8 N1          5.1646   -0.7286    2.6369 N.pl3     1 HISS       -0.3211 
      9 C6          4.7929   -1.8151    3.2767 C.ar      1 HISS        0.3860 
     10 N2          3.4550   -2.0567    3.1322 N.pl3     1 HISS       -0.6599 
     11 N3         -0.0404   -1.2102    0.0523 N.3       1 HISS       -0.8866 
     12 O2          2.2452   -3.8825    0.7450 O.co2     1 HISS       -0.5887 
     13 H2          1.2291    0.0897    1.8545 H         1 HISS        0.0660 
     14 H3          0.8934   -1.4136    2.7786 H         1 HISS        0.0660 
     15 H4          4.0630    0.6508    1.4664 H         1 HISS        0.1773 
     16 H5          6.1142   -0.1919    2.4952 H         1 HISS        0.3004 
     17 H6          5.4534   -2.4496    3.8518 H         1 HISS        0.0606 
     18 H7          0.0543   -0.1277   -0.1184 H         1 HISS        0.3604 
     19 H8         -0.2116   -1.7192   -0.9077 H         1 HISS        0.3604 
     20 H20         2.7975   -2.8525    3.5121 H         1 HISS        0.0000 
@<TRIPOS>BOND
     1    1    2 2    
     2    2    3 1    
     3    2   12 1    
     4    3    4 1    
     5    3    5 1    
     6    3   11 1    
     7    5    6 1    
     8    5   13 1    
     9    5   14 1    
    10    6   10 ar   
    11    6    7 ar   
    12    7    8 ar   
    13    7   15 1    
    14    8    9 ar   
    15    8   16 1    
    16    9   10 ar   
    17    9   17 1    
    18   10   20 1    
    19   11   18 1    
    20   11   19 1    
@<TRIPOS>SUBSTRUCTURE
     1 HISS        1 GROUP             0       ****    0 ROOT    
@<TRIPOS>MOLECULE
(2~{S})-2-amino-3-(1~{H}-imidazol-4-yl)propanoic acid
19   19    1
SMALL
USER_CHARGES


@<TRIPOS>ATOM
      1 O1          0.0386   -3.7692    1.2233 O.co2     1 HISS       -0.5707 
      2 C1          1.0816   -3.2076    0.9049 C.2       1 HISS        0.5822 
      3 C2          1.1716   -1.7099    0.6517 C.3       1 HISS        0.1334 
      4 H1          1.9456   -1.5041   -0.1024 H         1 HISS        0.1033 
      5 C3          1.4847   -0.9748    1.9614 C.3       1 HISS       -0.0833 
      6 C4          2.9408   -1.0603    2.3513 C.ar      1 HISS        0.3012 
      7 C5          4.0146   -0.2531    2.0581 C.ar      1 HISS       -0.2308 
      8 N1          5.1646   -0.7286    2.6369 N.pl3     1 HISS       -0.3211 
      9 C6          4.7929   -1.8151    3.2767 C.ar      1 HISS        0.3860 
     10 N2          3.4550   -2.0567    3.1322 N.2       1 HISS       -0.6599 
     11 N3         -0.0404   -1.2102    0.0523 N.3       1 HISS       -0.8866 
     12 O2          2.2452   -3.8825    0.7450 O.co2     1 HISS       -0.5887 
     13 H2          1.2291    0.0897    1.8545 H         1 HISS        0.0660 
     14 H3          0.8934   -1.4136    2.7786 H         1 HISS        0.0660 
     15 H4          4.0630    0.6508    1.4664 H         1 HISS        0.1773 
     16 H5          6.1142   -0.1919    2.4952 H         1 HISS        0.3004 
     17 H6          5.4534   -2.4496    3.8518 H         1 HISS        0.0606 
     18 H7          0.0543   -0.1277   -0.1184 H         1 HISS        0.3604 
     19 H8         -0.2116   -1.7192   -0.9077 H         1 HISS        0.3604 
@<TRIPOS>BOND
     1    1    2 2    
     2    2    3 1    
     3    2   12 1    
     4    3    4 1    
     5    3    5 1    
     6    3   11 1    
     7    5    6 1    
     8    5   13 1    
     9    5   14 1    
    10    6   10 ar   
    11    6    7 ar   
    12    7    8 ar   
    13    7   15 1    
    14    8    9 ar   
    15    8   16 1    
    16    9   10 ar   
    17    9   17 1    
    18   11   18 1    
    19   11   19 1    
@<TRIPOS>SUBSTRUCTURE
     1 HISS        1 GROUP             0       ****    0 ROOT    
@<TRIPOS>MOLECULE
(2~{S})-2-amino-3-(1~{H}-imidazol-4-yl)propanoic acid
20   20    1
SMALL
USER_CHARGES


@<TRIPOS>ATOM
      1 O1          0.0386   -3.7692    1.2233 O.2       1 HISS       -0.5707 
      2 C1          1.0816   -3.2076    0.9049 C.2       1 HISS        0.5822 
      3 C2          1.1716   -1.7099    0.6517 C.3       1 HISS        0.1334 
      4 H1          1.9456   -1.5041   -0.1024 H         1 HISS        0.1033 
      5 C3          1.4847   -0.9748    1.9614 C.3       1 HISS       -0.0833 
      6 C4          2.9408   -1.0603    2.3513 C.ar      1 HISS        0.3012 
      7 C5          4.0146   -0.2531    2.0581 C.ar      1 HISS       -0.2308 
      8 N1          5.1646   -0.7286    2.6369 N.2       1 HISS       -0.3211 
      9 C6          4.7925   -1.8140    3.2783 C.ar      1 HISS        0.3860 
     10 N2          3.4548   -2.0560    3.1332 N.pl3     1 HISS       -0.6599 
     11 N3         -0.0404   -1.2102    0.0523 N.3       1 HISS       -0.8866 
     12 O2          2.2452   -3.8825    0.7450 O.3       1 HISS       -0.5887 
     13 H2          1.2291    0.0897    1.8545 H         1 HISS        0.0660 
     14 H3          0.8934   -1.4136    2.7786 H         1 HISS        0.0660 
     15 H4          3.8888    0.5590    1.4883 H         1 HISS        0.1773 
     16 H5          2.7972   -2.8517    3.5133 H         1 HISS        0.3004 
     17 H6          5.4656   -2.3478    3.7902 H         1 HISS        0.0606 
     18 H7          0.0543   -0.1277   -0.1184 H         1 HISS        0.3604 
     19 H8         -0.2116   -1.7192   -0.9077 H         1 HISS        0.3604 
     20 H9          3.1596   -3.3422    0.4587 H         1 HISS        0.4438 
@<TRIPOS>BOND
     1    1    2 2    
     2    2    3 1    
     3    2   12 1    
     4    3    4 1    
     5    3    5 1    
     6    3   11 1    
     7    5   13 1    
     8    5   14 1    
     9    5    6 1    
    10    6    7 ar   
    11    6   10 ar   
    12    7   15 1    
    13    7    8 ar   
    14    8    9 ar   
    15    9   10 ar   
    16    9   17 1    
    17   10   16 1    
    18   11   18 1    
    19   11   19 1    
    20   12   20 1    
@<TRIPOS>SUBSTRUCTURE
     1 HISS        1 GROUP             0       ****    0 ROOT    
@<TRIPOS>MOLECULE
(2~{S})-2-amino-3-(1~{H}-imidazol-4-yl)propanoic acid
20   20    1
SMALL
USER_CHARGES


@<TRIPOS>ATOM
      1 O1          0.0386   -3.7692    1.2233 O.2       1 HISS       -0.5707 
      2 C1          1.0816   -3.2076    0.9049 C.2       1 HISS        0.5822 
      3 C2          1.1716   -1.7099    0.6517 C.3       1 HISS        0.1334 
      4 H1          1.9456   -1.5041   -0.1024 H         1 HISS        0.1033 
      5 C3          1.4847   -0.9748    1.9614 C.3       1 HISS       -0.0833 
      6 C4          2.9408   -1.0603    2.3513 C.ar      1 HISS        0.3012 
      7 C5          4.0146   -0.2531    2.0581 C.ar      1 HISS       -0.2308 
      8 N1          5.1646   -0.7286    2.6369 N.pl3     1 HISS       -0.3211 
      9 C6          4.7929   -1.8151    3.2767 C.ar      1 HISS        0.3860 
     10 N2          3.4550   -2.0567    3.1322 N.2       1 HISS       -0.6599 
     11 N3         -0.0404   -1.2102    0.0523 N.3       1 HISS       -0.8866 
     12 O2          2.2452   -3.8825    0.7450 O.3       1 HISS       -0.5887 
     13 H2          1.2291    0.0897    1.8545 H         1 HISS        0.0660 
     14 H3          0.8934   -1.4136    2.7786 H         1 HISS        0.0660 
     15 H4          4.0630    0.6508    1.4664 H         1 HISS        0.1773 
     16 H5          6.1142   -0.1919    2.4952 H         1 HISS        0.3004 
     17 H6          5.4534   -2.4496    3.8518 H         1 HISS        0.0606 
     18 H7          0.0543   -0.1277   -0.1184 H         1 HISS        0.3604 
     19 H8         -0.2116   -1.7192   -0.9077 H         1 HISS        0.3604 
     20 H9          3.1596   -3.3422    0.4587 H         1 HISS        0.4438 
@<TRIPOS>BOND
     1    1    2 2    
     2    2    3 1    
     3    2   12 1    
     4    3    4 1    
     5    3    5 1    
     6    3   11 1    
     7    5    6 1    
     8    5   13 1    
     9    5   14 1    
    10    6   10 ar   
    11    6    7 ar   
    12    7    8 ar   
    13    7   15 1    
    14    8    9 ar   
    15    8   16 1    
    16    9   10 ar   
    17    9   17 1    
    18   11   18 1    
    19   11   19 1    
    20   12   20 1    
@<TRIPOS>SUBSTRUCTURE
     1 HISS        1 GROUP             0       ****    0 ROOT    
@<TRIPOS>MOLECULE
(2~{S})-2-amino-3-(1~{H}-imidazol-4-yl)propanoic acid
21   21    1
SMALL
USER_CHARGES


@<TRIPOS>ATOM
      1 O1          0.0386   -3.7692    1.2233 O.2       1 HISS       -0.5707 
      2 C1          1.0816   -3.2076    0.9049 C.2       1 HISS        0.5822 
      3 C2          1.1716   -1.7099    0.6517 C.3       1 HISS        0.1334 
      4 H1          1.9456   -1.5041   -0.1024 H         1 HISS        0.1033 
      5 C3          1.4847   -0.9748    1.9614 C.3       1 HISS       -0.0833 
      6 C4          2.9408   -1.0603    2.3513 C.ar      1 HISS        0.3012 
      7 C5          4.0146   -0.2531    2.0581 C.ar      1 HISS       -0.2308 
      8 N1          5.1646   -0.7286    2.6369 N.pl3     1 HISS       -0.3211 
      9 C6          4.7929   -1.8151    3.2767 C.ar      1 HISS        0.3860 
     10 N2          3.4550   -2.0567    3.1322 N.pl3     1 HISS       -0.6599 
     11 N3         -0.0404   -1.2102    0.0523 N.3       1 HISS       -0.8866 
     12 O2          2.2452   -3.8825    0.7450 O.3       1 HISS       -0.5887 
     13 H2          1.2291    0.0897    1.8545 H         1 HISS        0.0660 
     14 H3          0.8934   -1.4136    2.7786 H         1 HISS        0.0660 
     15 H4          4.0630    0.6508    1.4664 H         1 HISS        0.1773 
     16 H5          6.1142   -0.1919    2.4952 H         1 HISS        0.3004 
     17 H6          5.4534   -2.4496    3.8518 H         1 HISS        0.0606 
     18 H7          0.0543   -0.1277   -0.1184 H         1 HISS        0.3604 
     19 H8         -0.2116   -1.7192   -0.9077 H         1 HISS        0.3604 
     20 H9          3.1596   -3.3422    0.4587 H         1 HISS        0.4438 
     21 H21         2.7975   -2.8525    3.5121 H         1 HISS        0.0000 
@<TRIPOS>BOND
     1    1    2 2    
     2    2    3 1    
     3    2   12 1    
     4    3    4 1    
     5    3    5 1    
     6    3   11 1    
     7    5    6 1    
     8    5   13 1    
     9    5   14 1    
    10    6   10 ar   
    11    6    7 ar   
    12    7    8 ar   
    13    7   15 1    
    14    8    9 ar   
    15    8   16 1    
    16    9   10 ar   
    17    9   17 1    
    18   10   21 1    
    19   11   18 1    
    20   11   19 1    
    21   12   20 1    
@<TRIPOS>SUBSTRUCTURE
     1 HISS        1 GROUP             0       ****    0 ROOT    
@<TRIPOS>MOLECULE
(2~{S})-2-amino-3-(1~{H}-imidazol-4-yl)propanoic acid
19   19    1
SMALL
USER_CHARGES


@<TRIPOS>ATOM
      1 O1          0.0386   -3.7692    1.2233 O.co2     1 HISS       -0.5707 
      2 C1          1.0816   -3.2076    0.9049 C.2       1 HISS        0.5822 
      3 C2          1.1716   -1.7099    0.6517 C.3       1 HISS        0.1334 
      4 H1          1.9456   -1.5041   -0.1024 H         1 HISS        0.1033 
      5 C3          1.4847   -0.9748    1.9614 C.3       1 HISS       -0.0833 
      6 C4          2.9408   -1.0603    2.3513 C.ar      1 HISS        0.3012 
      7 C5          4.0146   -0.2531    2.0581 C.ar      1 HISS       -0.2308 
      8 N1          5.1646   -0.7286    2.6369 N.ar      1 HISS       -0.3211 
      9 C6          4.7925   -1.8140    3.2783 C.ar      1 HISS        0.3860 
     10 N2          3.4548   -2.0560    3.1332 N.2       1 HISS       -0.6599 
     11 N3         -0.0404   -1.2102    0.0523 N.4       1 HISS       -0.8866 
     12 O2          2.2452   -3.8825    0.7450 O.co2     1 HISS       -0.5887 
     13 H2          1.2291    0.0897    1.8545 H         1 HISS        0.0660 
     14 H3          0.8934   -1.4136    2.7786 H         1 HISS        0.0660 
     15 H4          3.8888    0.5590    1.4883 H         1 HISS        0.1773 
     16 H6          5.4656   -2.3478    3.7902 H         1 HISS        0.0606 
     17 H7          0.0543   -0.1277   -0.1184 H         1 HISS        0.3604 
     18 H8         -0.8887   -1.4024    0.7256 H         1 HISS        0.3604 
     19 H19        -0.2116   -1.7192   -0.9077 H         1 HISS        0.0000 
@<TRIPOS>BOND
     1    1    2 2    
     2    2    3 1    
     3    2   12 1    
     4    3    4 1    
     5    3    5 1    
     6    3   11 1    
     7    5   13 1    
     8    5   14 1    
     9    5    6 1    
    10    6    7 ar   
    11    6   10 ar   
    12    7   15 1    
    13    7    8 ar   
    14    8    9 ar   
    15    9   10 ar   
    16    9   16 1    
    17   11   17 1    
    18   11   18 1    
    19   11   19 1    
@<TRIPOS>SUBSTRUCTURE
     1 HISS        1 GROUP             0       ****    0 ROOT    
@<TRIPOS>MOLECULE
(2~{S})-2-amino-3-(1~{H}-imidazol-4-yl)propanoic acid
21   21    1
SMALL
USER_CHARGES


@<TRIPOS>ATOM
      1 O1          0.0386   -3.7692    1.2233 O.2       1 HISS       -0.5707 
      2 C1          1.0816   -3.2076    0.9049 C.2       1 HISS        0.5822 
      3 C2          1.1716   -1.7099    0.6517 C.3       1 HISS        0.1334 
      4 H1          1.9456   -1.5041   -0.1024 H         1 HISS        0.1033 
      5 C3          1.4847   -0.9748    1.9614 C.3       1 HISS       -0.0833 
      6 C4          2.9408   -1.0603    2.3513 C.ar      1 HISS        0.3012 
      7 C5          4.0146   -0.2531    2.0581 C.ar      1 HISS       -0.2308 
      8 N1          5.1646   -0.7286    2.6369 N.2       1 HISS       -0.3211 
      9 C6          4.7925   -1.8140    3.2783 C.ar      1 HISS        0.3860 
     10 N2          3.4548   -2.0560    3.1332 N.pl3     1 HISS       -0.6599 
     11 N3         -0.0404   -1.2102    0.0523 N.4       1 HISS       -0.8866 
     12 O2          2.2452   -3.8825    0.7450 O.3       1 HISS       -0.5887 
     13 H2          1.2291    0.0897    1.8545 H         1 HISS        0.0660 
     14 H3          0.8934   -1.4136    2.7786 H         1 HISS        0.0660 
     15 H4          3.8888    0.5590    1.4883 H         1 HISS        0.1773 
     16 H5          2.7972   -2.8517    3.5133 H         1 HISS        0.3004 
     17 H6          5.4656   -2.3478    3.7902 H         1 HISS        0.0606 
     18 H7          0.0543   -0.1277   -0.1184 H         1 HISS        0.3604 
     19 H8         -0.8887   -1.4024    0.7256 H         1 HISS        0.3604 
     20 H9          3.1596   -3.3422    0.4587 H         1 HISS        0.4438 
     21 H21        -0.2116   -1.7192   -0.9077 H         1 HISS        0.0000 
@<TRIPOS>BOND
     1    1    2 2    
     2    2    3 1    
     3    2   12 1    
     4    3    4 1    
     5    3    5 1    
     6    3   11 1    
     7    5   13 1    
     8    5   14 1    
     9    5    6 1    
    10    6    7 ar   
    11    6   10 ar   
    12    7   15 1    
    13    7    8 ar   
    14    8    9 ar   
    15    9   10 ar   
    16    9   17 1    
    17   10   16 1    
    18   11   18 1    
    19   11   19 1    
    20   11   21 1    
    21   12   20 1    
@<TRIPOS>SUBSTRUCTURE
     1 HISS        1 GROUP             0       ****    0 ROOT    
@<TRIPOS>MOLECULE
(2~{S})-2-amino-3-(1~{H}-imidazol-4-yl)propanoic acid
21   21    1
SMALL
USER_CHARGES


@<TRIPOS>ATOM
      1 O1          0.0386   -3.7692    1.2233 O.2       1 HISS       -0.5707 
      2 C1          1.0816   -3.2076    0.9049 C.2       1 HISS        0.5822 
      3 C2          1.1716   -1.7099    0.6517 C.3       1 HISS        0.1334 
      4 H1          1.9456   -1.5041   -0.1024 H         1 HISS        0.1033 
      5 C3          1.4847   -0.9748    1.9614 C.3       1 HISS       -0.0833 
      6 C4          2.9408   -1.0603    2.3513 C.ar      1 HISS        0.3012 
      7 C5          4.0146   -0.2531    2.0581 C.ar      1 HISS       -0.2308 
      8 N1          5.1646   -0.7286    2.6369 N.pl3     1 HISS       -0.3211 
      9 C6          4.7929   -1.8151    3.2767 C.ar      1 HISS        0.3860 
     10 N2          3.4550   -2.0567    3.1322 N.2       1 HISS       -0.6599 
     11 N3         -0.0404   -1.2102    0.0523 N.4       1 HISS       -0.8866 
     12 O2          2.2452   -3.8825    0.7450 O.3       1 HISS       -0.5887 
     13 H2          1.2291    0.0897    1.8545 H         1 HISS        0.0660 
     14 H3          0.8934   -1.4136    2.7786 H         1 HISS        0.0660 
     15 H4          4.0630    0.6508    1.4664 H         1 HISS        0.1773 
     16 H5          6.1142   -0.1919    2.4952 H         1 HISS        0.3004 
     17 H6          5.4534   -2.4496    3.8518 H         1 HISS        0.0606 
     18 H7          0.0543   -0.1277   -0.1184 H         1 HISS        0.3604 
     19 H8         -0.8887   -1.4024    0.7256 H         1 HISS        0.3604 
     20 H9          3.1596   -3.3422    0.4587 H         1 HISS        0.4438 
     21 H21        -0.2116   -1.7192   -0.9077 H         1 HISS        0.0000 
@<TRIPOS>BOND
     1    1    2 2    
     2    2    3 1    
     3    2   12 1    
     4    3    4 1    
     5    3    5 1    
     6    3   11 1    
     7    5    6 1    
     8    5   13 1    
     9    5   14 1    
    10    6   10 ar   
    11    6    7 ar   
    12    7    8 ar   
    13    7   15 1    
    14    8    9 ar   
    15    8   16 1    
    16    9   10 ar   
    17    9   17 1    
    18   11   18 1    
    19   11   19 1    
    20   11   21 1    
    21   12   20 1    
@<TRIPOS>SUBSTRUCTURE
     1 HISS        1 GROUP             0       ****    0 ROOT    
@<TRIPOS>MOLECULE
(2~{S})-2-amino-3-(1~{H}-imidazol-4-yl)propanoic acid
22   22    1
SMALL
USER_CHARGES


@<TRIPOS>ATOM
      1 O1          0.0386   -3.7692    1.2233 O.2       1 HISS       -0.5707 
      2 C1          1.0816   -3.2076    0.9049 C.2       1 HISS        0.5822 
      3 C2          1.1716   -1.7099    0.6517 C.3       1 HISS        0.1334 
      4 H1          1.9456   -1.5041   -0.1024 H         1 HISS        0.1033 
      5 C3          1.4847   -0.9748    1.9614 C.3       1 HISS       -0.0833 
      6 C4          2.9408   -1.0603    2.3513 C.ar      1 HISS        0.3012 
      7 C5          4.0146   -0.2531    2.0581 C.ar      1 HISS       -0.2308 
      8 N1          5.1646   -0.7286    2.6369 N.pl3     1 HISS       -0.3211 
      9 C6          4.7929   -1.8151    3.2767 C.ar      1 HISS        0.3860 
     10 N2          3.4550   -2.0567    3.1322 N.pl3     1 HISS       -0.6599 
     11 N3         -0.0404   -1.2102    0.0523 N.4       1 HISS       -0.8866 
     12 O2          2.2452   -3.8825    0.7450 O.3       1 HISS       -0.5887 
     13 H2          1.2291    0.0897    1.8545 H         1 HISS        0.0660 
     14 H3          0.8934   -1.4136    2.7786 H         1 HISS        0.0660 
     15 H4          4.0630    0.6508    1.4664 H         1 HISS        0.1773 
     16 H5          6.1142   -0.1919    2.4952 H         1 HISS        0.3004 
     17 H6          5.4534   -2.4496    3.8518 H         1 HISS        0.0606 
     18 H7          0.0543   -0.1277   -0.1184 H         1 HISS        0.3604 
     19 H8         -0.8887   -1.4024    0.7256 H         1 HISS        0.3604 
     20 H9          3.1596   -3.3422    0.4587 H         1 HISS        0.4438 
     21 H21         2.7975   -2.8525    3.5121 H         1 HISS        0.0000 
     22 H22        -0.2116   -1.7192   -0.9077 H         1 HISS        0.0000 
@<TRIPOS>BOND
     1    1    2 2    
     2    2    3 1    
     3    2   12 1    
     4    3    4 1    
     5    3    5 1    
     6    3   11 1    
     7    5    6 1    
     8    5   13 1    
     9    5   14 1    
    10    6   10 ar   
    11    6    7 ar   
    12    7    8 ar   
    13    7   15 1    
    14    8    9 ar   
    15    8   16 1    
    16    9   10 ar   
    17    9   17 1    
    18   10   21 1    
    19   11   18 1    
    20   11   19 1    
    21   11   22 1    
    22   12   20 1    
@<TRIPOS>SUBSTRUCTURE
     1 HISS        1 GROUP             0       ****    0 ROOT    
@<TRIPOS>MOLECULE
(2~{S})-2-amino-3-(1~{H}-imidazol-4-yl)propanoic acid
18   18    1
SMALL
USER_CHARGES


@<TRIPOS>ATOM
      1 O1          0.0386   -3.7692    1.2233 O.co2     1 HISS       -0.5707 
      2 C1          1.0816   -3.2076    0.9049 C.2       1 HISS        0.5822 
      3 C2          1.1716   -1.7099    0.6517 C.3       1 HISS        0.1334 
      4 H1          1.9456   -1.5041   -0.1024 H         1 HISS        0.1033 
      5 C3          1.4847   -0.9748    1.9614 C.3       1 HISS       -0.0833 
      6 C4          2.9408   -1.0603    2.3513 C.ar      1 HISS        0.3012 
      7 C5          4.0146   -0.2531    2.0581 C.ar      1 HISS       -0.2308 
      8 N1          5.1646   -0.7286    2.6369 N.2       1 HISS       -0.3211 
      9 C6          4.7929   -1.8151    3.2767 C.ar      1 HISS        0.3860 
     10 N2          3.4550   -2.0567    3.1322 N.ar      1 HISS       -0.6599 
     11 N3         -0.0404   -1.2102    0.0523 N.3       1 HISS       -0.8866 
     12 O2          2.2452   -3.8825    0.7450 O.co2     1 HISS       -0.5887 
     13 H2          1.2291    0.0897    1.8545 H         1 HISS        0.0660 
     14 H3          0.8934   -1.4136    2.7786 H         1 HISS        0.0660 
     15 H4          4.0630    0.6508    1.4664 H         1 HISS        0.1773 
     16 H6          5.4534   -2.4496    3.8518 H         1 HISS        0.0606 
     17 H7          0.0543   -0.1277   -0.1184 H         1 HISS        0.3604 
     18 H8         -0.2116   -1.7192   -0.9077 H         1 HISS        0.3604 
@<TRIPOS>BOND
     1    1    2 2    
     2    2    3 1    
     3    2   12 1    
     4    3    4 1    
     5    3    5 1    
     6    3   11 1    
     7    5    6 1    
     8    5   13 1    
     9    5   14 1    
    10    6   10 ar   
    11    6    7 ar   
    12    7    8 ar   
    13    7   15 1    
    14    8    9 ar   
    15    9   10 ar   
    16    9   16 1    
    17   11   17 1    
    18   11   18 1    
@<TRIPOS>SUBSTRUCTURE
     1 HISS        1 GROUP             0       ****    0 ROOT    
