@<TRIPOS>MOLECULE
3-(2-imidazo[1,2-b]pyridazin-3-ylethynyl)-4-methyl-~{N}-[4-[(4-methylpiperazin-1-yl)methyl]-3-(trifluoromethyl)phenyl]benzamide
   66    70     0     0     0
SMALL
USER_CHARGES

@<TRIPOS>ATOM
      1 C1         -2.9418   -3.2843   12.5983 C.3       1 PON        -0.0720
      2 C2         -2.2958   -3.2216   11.2515 C.ar      1 PON        -0.0177
      3 C3         -1.6272   -2.0527   10.8874 C.ar      1 PON        -0.1474
      4 C4         -1.0132   -1.9606    9.6384 C.ar      1 PON        -0.0930
      5 C5         -1.0678   -3.0373    8.7533 C.ar      1 PON        -0.1633
      6 C6         -1.7364   -4.2061    9.1173 C.ar      1 PON        -0.0423
      7 C7         -2.3504   -4.2983   10.3664 C.ar      1 PON         0.0162
      8 C8         -3.0314   -5.5075   10.7163 C.1       1 PON        -0.0828
      9 C9         -3.6024   -6.5219   11.0098 C.1       1 PON        -0.0635
     10 C10        -4.2827   -7.7307   11.3594 C.2       1 PON        -0.0926
     11 C11        -3.7916   -9.0142   11.3734 C.2       1 PON         0.3663
     12 N1         -4.7537   -9.9093   11.7663 N.2       1 PON        -0.6476
     13 C12        -5.8302   -9.1840   11.9931 C.2       1 PON         0.4170
     14 N2         -5.5891   -7.8415   11.7567 N.pl3     1 PON         0.0726
     15 N3         -6.4721   -6.8120   11.8891 N.2       1 PON        -0.4866
     16 C13        -7.6461   -7.1981   12.2815 C.2       1 PON         0.3967
     17 C14        -8.0594   -8.5914   12.5747 C.2       1 PON        -0.2602
     18 C15        -7.1307   -9.5420   12.4190 C.2       1 PON        -0.1538
     19 C16        -0.4207   -2.9381    7.4338 C.2       1 PON         0.6868
     20 O1         -0.0486   -3.9446    6.8344 O.2       1 PON        -0.5829
     21 N4         -0.3170   -1.6370    6.9392 N.am      1 PON        -0.4685
     22 C17         0.2089   -1.2288    5.7131 C.ar      1 PON         0.0683
     23 C18         0.7107   -2.1756    4.8200 C.ar      1 PON        -0.1359
     24 C19         1.2365   -1.7680    3.5941 C.ar      1 PON        -0.0992
     25 C20         1.2606   -0.4136    3.2612 C.ar      1 PON        -0.0512
     26 C21         0.7588    0.5331    4.1543 C.ar      1 PON        -0.1409
     27 C22         0.2330    0.1255    5.3802 C.ar      1 PON        -0.1507
     28 C23         0.7745    1.9885    3.8196 C.3       1 PON         0.6868
     29 F1          1.3130    2.2608    2.5950 F         1 PON        -0.2400
     30 F2         -0.4669    2.5560    3.7988 F         1 PON        -0.2400
     31 F3          1.4997    2.7226    4.7117 F         1 PON        -0.2400
     32 C24         1.8318    0.0009    1.9360 C.3       1 PON         0.2173
     33 N5          2.2992   -1.1455    1.1591 N.3       1 PON        -0.7521
     34 C25         3.3057   -0.7320    0.1736 C.3       1 PON         0.1744
     35 C26         3.7944   -1.9328   -0.6437 C.3       1 PON         0.1721
     36 N6          2.6711   -2.6031   -1.3098 N.3       1 PON        -0.7415
     37 C27         1.6650   -3.0176   -0.3243 C.3       1 PON         0.1721
     38 C28         1.1762   -1.8176    0.4942 C.3       1 PON         0.1744
     39 C29         3.1378   -3.7486   -2.0883 C.3       1 PON         0.1612
     40 H1         -2.2331   -3.6732   13.3358 H         1 PON         0.0566
     41 H2         -3.2766   -2.2919   12.9180 H         1 PON         0.0566
     42 H3         -3.8241   -3.9328   12.5788 H         1 PON         0.0566
     43 H4         -1.5781   -1.2080   11.5696 H         1 PON         0.1431
     44 H5         -0.4930   -1.0458    9.3659 H         1 PON         0.1377
     45 H6         -1.7765   -5.0428    8.4222 H         1 PON         0.1674
     46 H7         -2.7937   -9.3451   11.1221 H         1 PON         0.0564
     47 H8         -8.4348   -6.4406   12.4189 H         1 PON         0.0534
     48 H9         -9.0718   -8.7924   12.8970 H         1 PON         0.1577
     49 H10        -7.3627  -10.5828   12.6153 H         1 PON         0.1708
     50 H11        -0.6866   -0.8802    7.5092 H         1 PON         0.3223
     51 H12         0.6970   -3.2337    5.0688 H         1 PON         0.1821
     52 H13         1.6251   -2.5135    2.9052 H         1 PON         0.1638
     53 H14        -0.1578    0.8649    6.0759 H         1 PON         0.1435
     54 H15         1.0795    0.5284    1.3394 H         1 PON         0.0565
     55 H16         2.6782    0.6828    2.0689 H         1 PON         0.0565
     56 H17         2.9013    0.0343   -0.5017 H         1 PON         0.0397
     57 H18         4.1683   -0.2911    0.6878 H         1 PON         0.0397
     58 H19         4.5078   -1.5712   -1.3943 H         1 PON         0.0369
     59 H20         4.3348   -2.6300    0.0111 H         1 PON         0.0369
     60 H21         0.8023   -3.4584   -0.8385 H         1 PON         0.0369
     61 H22         2.0698   -3.7843    0.3504 H         1 PON         0.0369
     62 H23         0.6345   -1.1209   -0.1600 H         1 PON         0.0397
     63 H24         0.4638   -2.1799    1.2454 H         1 PON         0.0397
     64 H25         2.2850   -4.2197   -2.5659 H         1 PON         0.0320
     65 H26         3.6262   -4.4531   -1.4229 H         1 PON         0.0320
     66 H27         3.8398   -3.4029   -2.8401 H         1 PON         0.0320
@<TRIPOS>BOND
     1    1    2 1
     2    2    7 ar
     3    2    3 ar
     4    3    4 ar
     5    4    5 ar
     6    5    6 ar
     7    6    7 ar
     8    7    8 1
     9    8    9 3
    10    9   10 1
    11   10   14 1
    12   10   11 2
    13   11   12 1
    14   12   13 2
    15   13   18 1
    16   13   14 1
    17   14   15 1
    18   15   16 2
    19   16   17 1
    20   17   18 2
    21    5   19 1
    22   19   20 2
    23   19   21 am
    24   21   22 1
    25   22   27 ar
    26   22   23 ar
    27   23   24 ar
    28   24   25 ar
    29   25   26 ar
    30   26   27 ar
    31   26   28 1
    32   28   29 1
    33   28   30 1
    34   28   31 1
    35   25   32 1
    36   32   33 1
    37   33   38 1
    38   33   34 1
    39   34   35 1
    40   35   36 1
    41   36   37 1
    42   37   38 1
    43   36   39 1
    44    1   40 1
    45    1   41 1
    46    1   42 1
    47    3   43 1
    48    4   44 1
    49    6   45 1
    50   11   46 1
    51   16   47 1
    52   17   48 1
    53   18   49 1
    54   21   50 1
    55   23   51 1
    56   24   52 1
    57   27   53 1
    58   32   54 1
    59   32   55 1
    60   34   56 1
    61   34   57 1
    62   35   58 1
    63   35   59 1
    64   37   60 1
    65   37   61 1
    66   38   62 1
    67   38   63 1
    68   39   64 1
    69   39   65 1
    70   39   66 1
