3-(2-imidazo[1,2-b]pyridazin-3-ylethynyl)-4-methyl-~{N}-[4-[(4-methylpiperazin-1-yl)methyl]-3-(trifluoromethyl)phenyl]benzamide
                    3D
 Structure written by MMmdl.
 67 71  0  0  1  0            999 V2000
   -2.9418   -3.2843   12.5983 C   0  0  0  0  0  0
   -2.2958   -3.2216   11.2514 C   0  0  0  0  0  0
   -1.6272   -2.0527   10.8874 C   0  0  0  0  0  0
   -1.0132   -1.9606    9.6384 C   0  0  0  0  0  0
   -1.0678   -3.0373    8.7533 C   0  0  0  0  0  0
   -1.7364   -4.2061    9.1173 C   0  0  0  0  0  0
   -2.3504   -4.2983   10.3664 C   0  0  0  0  0  0
   -3.0314   -5.5075   10.7163 C   0  0  0  0  0  0
   -3.6024   -6.5219   11.0098 C   0  0  0  0  0  0
   -4.2827   -7.7307   11.3594 C   0  0  0  0  0  0
   -3.7916   -9.0142   11.3734 C   0  0  0  0  0  0
   -4.7537   -9.9093   11.7663 N   0  0  0  0  0  0
   -5.8302   -9.1840   11.9931 C   0  0  0  0  0  0
   -5.5891   -7.8415   11.7567 N   0  0  0  0  0  0
   -6.4721   -6.8120   11.8891 N   0  0  0  0  0  0
   -7.6461   -7.1981   12.2815 C   0  0  0  0  0  0
   -8.0594   -8.5914   12.5747 C   0  0  0  0  0  0
   -7.1307   -9.5420   12.4190 C   0  0  0  0  0  0
   -0.4207   -2.9381    7.4338 C   0  0  0  0  0  0
   -0.0486   -3.9446    6.8344 O   0  0  0  0  0  0
   -0.3170   -1.6370    6.9392 N   0  0  0  0  0  0
    0.2089   -1.2288    5.7131 C   0  0  0  0  0  0
    0.7107   -2.1756    4.8200 C   0  0  0  0  0  0
    1.2365   -1.7680    3.5941 C   0  0  0  0  0  0
    1.2606   -0.4136    3.2612 C   0  0  0  0  0  0
    0.7588    0.5331    4.1543 C   0  0  0  0  0  0
    0.2330    0.1255    5.3802 C   0  0  0  0  0  0
    0.7745    1.9885    3.8196 C   0  0  0  0  0  0
    1.3130    2.2608    2.5950 F   0  0  0  0  0  0
   -0.4669    2.5560    3.7988 F   0  0  0  0  0  0
    1.4997    2.7226    4.7117 F   0  0  0  0  0  0
    1.8318    0.0009    1.9360 C   0  0  0  0  0  0
    2.2992   -1.1455    1.1591 N   0  3  0  0  0  0
    3.3057   -0.7320    0.1736 C   0  0  0  0  0  0
    3.7944   -1.9328   -0.6437 C   0  0  0  0  0  0
    2.6711   -2.6031   -1.3098 N   0  0  0  0  0  0
    1.6650   -3.0176   -0.3243 C   0  0  0  0  0  0
    1.1762   -1.8176    0.4942 C   0  0  0  0  0  0
    3.1378   -3.7486   -2.0883 C   0  0  0  0  0  0
   -2.7782   -2.3342   13.1280 H   0  0  0  0  0  0
   -2.5008   -4.1083   13.1784 H   0  0  0  0  0  0
   -4.0217   -3.4565   12.4793 H   0  0  0  0  0  0
   -1.5781   -1.2080   11.5696 H   0  0  0  0  0  0
   -0.4930   -1.0458    9.3659 H   0  0  0  0  0  0
   -1.7765   -5.0428    8.4222 H   0  0  0  0  0  0
   -2.7937   -9.3451   11.1221 H   0  0  0  0  0  0
   -8.4348   -6.4406   12.4189 H   0  0  0  0  0  0
   -9.0718   -8.7924   12.8970 H   0  0  0  0  0  0
   -7.3627  -10.5828   12.6153 H   0  0  0  0  0  0
   -0.6755   -0.7894    7.5417 H   0  0  0  0  0  0
    0.6970   -3.2337    5.0688 H   0  0  0  0  0  0
    1.6251   -2.5135    2.9052 H   0  0  0  0  0  0
   -0.1579    0.8649    6.0759 H   0  0  0  0  0  0
    1.0594    0.5210    1.3504 H   0  0  0  0  0  0
    2.6847    0.6760    2.0994 H   0  0  0  0  0  0
    2.8657    0.0073   -0.5118 H   0  0  0  0  0  0
    4.1654   -0.2840    0.6934 H   0  0  0  0  0  0
    4.5065   -1.5901   -1.4089 H   0  0  0  0  0  0
    4.2912   -2.6526    0.0234 H   0  0  0  0  0  0
    0.8052   -3.4654   -0.8442 H   0  0  0  0  0  0
    2.1054   -3.7574    0.3604 H   0  0  0  0  0  0
    0.4615   -2.1731    1.2511 H   0  0  0  0  0  0
    0.6732   -1.1099   -0.1812 H   0  0  0  0  0  0
    2.2800   -4.2337   -2.5771 H   0  0  0  0  0  0
    3.6343   -4.4680   -1.4205 H   0  0  0  0  0  0
    3.8503   -3.4062   -2.8532 H   0  0  0  0  0  0
    2.7661   -1.8555    1.8576 H   0  0  0  0  0  0
  1  2  1  0  0  0
  1 40  1  0  0  0
  1 41  1  0  0  0
  1 42  1  0  0  0
  2  7  2  0  0  0
  2  3  1  0  0  0
  3  4  2  0  0  0
  3 43  1  0  0  0
  4  5  1  0  0  0
  4 44  1  0  0  0
  5  6  2  0  0  0
  5 19  1  0  0  0
  6  7  1  0  0  0
  6 45  1  0  0  0
  7  8  1  0  0  0
  8  9  3  0  0  0
  9 10  1  0  0  0
 10 14  1  0  0  0
 10 11  2  0  0  0
 11 12  1  0  0  0
 11 46  1  0  0  0
 12 13  2  0  0  0
 13 18  1  0  0  0
 13 14  1  0  0  0
 14 15  1  0  0  0
 15 16  2  0  0  0
 16 17  1  0  0  0
 16 47  1  0  0  0
 17 18  2  0  0  0
 17 48  1  0  0  0
 18 49  1  0  0  0
 19 20  2  0  0  0
 19 21  1  0  0  0
 21 22  1  0  0  0
 21 50  1  0  0  0
 22 27  2  0  0  0
 22 23  1  0  0  0
 23 24  2  0  0  0
 23 51  1  0  0  0
 24 25  1  0  0  0
 24 52  1  0  0  0
 25 26  2  0  0  0
 25 32  1  0  0  0
 26 27  1  0  0  0
 26 28  1  0  0  0
 27 53  1  0  0  0
 28 29  1  0  0  0
 28 30  1  0  0  0
 28 31  1  0  0  0
 32 33  1  0  0  0
 32 54  1  0  0  0
 32 55  1  0  0  0
 33 38  1  0  0  0
 33 34  1  0  0  0
 33 67  1  0  0  0
 34 35  1  0  0  0
 34 56  1  0  0  0
 34 57  1  0  0  0
 35 36  1  0  0  0
 35 58  1  0  0  0
 35 59  1  0  0  0
 36 37  1  0  0  0
 36 39  1  0  0  0
 37 38  1  0  0  0
 37 60  1  0  0  0
 37 61  1  0  0  0
 38 62  1  0  0  0
 38 63  1  0  0  0
 39 64  1  0  0  0
 39 65  1  0  0  0
 39 66  1  0  0  0
M  CHG  1  33   1
M  END
> <s_m_source_file>
/Users/choderaj/github/choderalab/mcce-charges/mcce-charges.jchodera/epik_inhibitors/output/Ponatinib/Ponatinib-input.mol2

> <i_m_source_file_index>
1

> <r_epik_Ionization_Penalty>
  0.0387

> <r_epik_Ionization_Penalty_Charging>
  0.0381

> <r_epik_Ionization_Penalty_Neutral>
  0.0006

> <r_epik_State_Penalty>
  0.3156

> <i_epik_Tot_Q>
1

$$$$
3-(2-imidazo[1,2-b]pyridazin-3-ylethynyl)-4-methyl-~{N}-[4-[(4-methylpiperazin-1-yl)methyl]-3-(trifluoromethyl)phenyl]benzamide
                    3D
 Structure written by MMmdl.
 67 71  0  0  1  0            999 V2000
   -2.9418   -3.2843   12.5983 C   0  0  0  0  0  0
   -2.2958   -3.2216   11.2514 C   0  0  0  0  0  0
   -1.6272   -2.0527   10.8874 C   0  0  0  0  0  0
   -1.0132   -1.9606    9.6384 C   0  0  0  0  0  0
   -1.0678   -3.0373    8.7533 C   0  0  0  0  0  0
   -1.7364   -4.2061    9.1173 C   0  0  0  0  0  0
   -2.3504   -4.2983   10.3664 C   0  0  0  0  0  0
   -3.0314   -5.5075   10.7163 C   0  0  0  0  0  0
   -3.6024   -6.5219   11.0098 C   0  0  0  0  0  0
   -4.2827   -7.7307   11.3594 C   0  0  0  0  0  0
   -3.7916   -9.0142   11.3734 C   0  0  0  0  0  0
   -4.7537   -9.9093   11.7663 N   0  0  0  0  0  0
   -5.8302   -9.1840   11.9931 C   0  0  0  0  0  0
   -5.5891   -7.8415   11.7567 N   0  0  0  0  0  0
   -6.4721   -6.8120   11.8891 N   0  0  0  0  0  0
   -7.6461   -7.1981   12.2815 C   0  0  0  0  0  0
   -8.0594   -8.5914   12.5747 C   0  0  0  0  0  0
   -7.1307   -9.5420   12.4190 C   0  0  0  0  0  0
   -0.4207   -2.9381    7.4338 C   0  0  0  0  0  0
   -0.0486   -3.9446    6.8344 O   0  0  0  0  0  0
   -0.3170   -1.6370    6.9392 N   0  0  0  0  0  0
    0.2089   -1.2288    5.7131 C   0  0  0  0  0  0
    0.7107   -2.1756    4.8200 C   0  0  0  0  0  0
    1.2365   -1.7680    3.5941 C   0  0  0  0  0  0
    1.2606   -0.4136    3.2612 C   0  0  0  0  0  0
    0.7588    0.5331    4.1543 C   0  0  0  0  0  0
    0.2330    0.1255    5.3802 C   0  0  0  0  0  0
    0.7745    1.9885    3.8196 C   0  0  0  0  0  0
    1.3130    2.2608    2.5950 F   0  0  0  0  0  0
   -0.4669    2.5560    3.7988 F   0  0  0  0  0  0
    1.4997    2.7226    4.7117 F   0  0  0  0  0  0
    1.8318    0.0009    1.9360 C   0  0  0  0  0  0
    2.2992   -1.1455    1.1591 N   0  0  0  0  0  0
    3.3057   -0.7320    0.1736 C   0  0  0  0  0  0
    3.7944   -1.9328   -0.6437 C   0  0  0  0  0  0
    2.6711   -2.6031   -1.3098 N   0  3  0  0  0  0
    1.6650   -3.0176   -0.3243 C   0  0  0  0  0  0
    1.1762   -1.8176    0.4942 C   0  0  0  0  0  0
    3.1378   -3.7486   -2.0883 C   0  0  0  0  0  0
   -2.7782   -2.3342   13.1280 H   0  0  0  0  0  0
   -2.5008   -4.1083   13.1784 H   0  0  0  0  0  0
   -4.0217   -3.4565   12.4793 H   0  0  0  0  0  0
   -1.5781   -1.2080   11.5696 H   0  0  0  0  0  0
   -0.4930   -1.0458    9.3659 H   0  0  0  0  0  0
   -1.7765   -5.0428    8.4222 H   0  0  0  0  0  0
   -2.7937   -9.3451   11.1221 H   0  0  0  0  0  0
   -8.4348   -6.4406   12.4189 H   0  0  0  0  0  0
   -9.0718   -8.7924   12.8970 H   0  0  0  0  0  0
   -7.3627  -10.5828   12.6153 H   0  0  0  0  0  0
   -0.6755   -0.7894    7.5417 H   0  0  0  0  0  0
    0.6970   -3.2337    5.0688 H   0  0  0  0  0  0
    1.6251   -2.5135    2.9052 H   0  0  0  0  0  0
   -0.1579    0.8649    6.0759 H   0  0  0  0  0  0
    1.0594    0.5210    1.3504 H   0  0  0  0  0  0
    2.6847    0.6760    2.0994 H   0  0  0  0  0  0
    2.8657    0.0073   -0.5118 H   0  0  0  0  0  0
    4.1654   -0.2840    0.6934 H   0  0  0  0  0  0
    4.5065   -1.5901   -1.4089 H   0  0  0  0  0  0
    4.2912   -2.6526    0.0234 H   0  0  0  0  0  0
    0.8052   -3.4654   -0.8442 H   0  0  0  0  0  0
    2.1054   -3.7574    0.3604 H   0  0  0  0  0  0
    0.4615   -2.1731    1.2511 H   0  0  0  0  0  0
    0.6732   -1.1099   -0.1812 H   0  0  0  0  0  0
    2.2800   -4.2337   -2.5771 H   0  0  0  0  0  0
    3.6343   -4.4680   -1.4205 H   0  0  0  0  0  0
    3.8503   -3.4062   -2.8532 H   0  0  0  0  0  0
    2.2045   -1.8921   -2.0075 H   0  0  0  0  0  0
  1  2  1  0  0  0
  1 40  1  0  0  0
  1 41  1  0  0  0
  1 42  1  0  0  0
  2  7  2  0  0  0
  2  3  1  0  0  0
  3  4  2  0  0  0
  3 43  1  0  0  0
  4  5  1  0  0  0
  4 44  1  0  0  0
  5  6  2  0  0  0
  5 19  1  0  0  0
  6  7  1  0  0  0
  6 45  1  0  0  0
  7  8  1  0  0  0
  8  9  3  0  0  0
  9 10  1  0  0  0
 10 14  1  0  0  0
 10 11  2  0  0  0
 11 12  1  0  0  0
 11 46  1  0  0  0
 12 13  2  0  0  0
 13 18  1  0  0  0
 13 14  1  0  0  0
 14 15  1  0  0  0
 15 16  2  0  0  0
 16 17  1  0  0  0
 16 47  1  0  0  0
 17 18  2  0  0  0
 17 48  1  0  0  0
 18 49  1  0  0  0
 19 20  2  0  0  0
 19 21  1  0  0  0
 21 22  1  0  0  0
 21 50  1  0  0  0
 22 27  2  0  0  0
 22 23  1  0  0  0
 23 24  2  0  0  0
 23 51  1  0  0  0
 24 25  1  0  0  0
 24 52  1  0  0  0
 25 26  2  0  0  0
 25 32  1  0  0  0
 26 27  1  0  0  0
 26 28  1  0  0  0
 27 53  1  0  0  0
 28 29  1  0  0  0
 28 30  1  0  0  0
 28 31  1  0  0  0
 32 33  1  0  0  0
 32 54  1  0  0  0
 32 55  1  0  0  0
 33 38  1  0  0  0
 33 34  1  0  0  0
 34 35  1  0  0  0
 34 56  1  0  0  0
 34 57  1  0  0  0
 35 36  1  0  0  0
 35 58  1  0  0  0
 35 59  1  0  0  0
 36 37  1  0  0  0
 36 39  1  0  0  0
 36 67  1  0  0  0
 37 38  1  0  0  0
 37 60  1  0  0  0
 37 61  1  0  0  0
 38 62  1  0  0  0
 38 63  1  0  0  0
 39 64  1  0  0  0
 39 65  1  0  0  0
 39 66  1  0  0  0
M  CHG  1  36   1
M  END
> <s_m_source_file>
/Users/choderaj/github/choderalab/mcce-charges/mcce-charges.jchodera/epik_inhibitors/output/Ponatinib/Ponatinib-input.mol2

> <i_m_source_file_index>
1

> <r_epik_Ionization_Penalty>
  0.0795

> <r_epik_Ionization_Penalty_Charging>
  0.0564

> <r_epik_Ionization_Penalty_Neutral>
  0.0231

> <r_epik_State_Penalty>
  0.5726

> <i_epik_Tot_Q>
1

$$$$
3-(2-imidazo[1,2-b]pyridazin-3-ylethynyl)-4-methyl-~{N}-[4-[(4-methylpiperazin-1-yl)methyl]-3-(trifluoromethyl)phenyl]benzamide
                    3D
 Structure written by MMmdl.
 66 70  0  0  1  0            999 V2000
   -2.9418   -3.2843   12.5983 C   0  0  0  0  0  0
   -2.2958   -3.2216   11.2514 C   0  0  0  0  0  0
   -1.6272   -2.0527   10.8874 C   0  0  0  0  0  0
   -1.0132   -1.9606    9.6384 C   0  0  0  0  0  0
   -1.0678   -3.0373    8.7533 C   0  0  0  0  0  0
   -1.7364   -4.2061    9.1173 C   0  0  0  0  0  0
   -2.3504   -4.2983   10.3664 C   0  0  0  0  0  0
   -3.0314   -5.5075   10.7163 C   0  0  0  0  0  0
   -3.6024   -6.5219   11.0098 C   0  0  0  0  0  0
   -4.2827   -7.7307   11.3594 C   0  0  0  0  0  0
   -3.7916   -9.0142   11.3734 C   0  0  0  0  0  0
   -4.7537   -9.9093   11.7663 N   0  0  0  0  0  0
   -5.8302   -9.1840   11.9931 C   0  0  0  0  0  0
   -5.5891   -7.8415   11.7567 N   0  0  0  0  0  0
   -6.4721   -6.8120   11.8891 N   0  0  0  0  0  0
   -7.6461   -7.1981   12.2815 C   0  0  0  0  0  0
   -8.0594   -8.5914   12.5747 C   0  0  0  0  0  0
   -7.1307   -9.5420   12.4190 C   0  0  0  0  0  0
   -0.4207   -2.9381    7.4338 C   0  0  0  0  0  0
   -0.0486   -3.9446    6.8344 O   0  0  0  0  0  0
   -0.3170   -1.6370    6.9392 N   0  0  0  0  0  0
    0.2089   -1.2288    5.7131 C   0  0  0  0  0  0
    0.7107   -2.1756    4.8200 C   0  0  0  0  0  0
    1.2365   -1.7680    3.5941 C   0  0  0  0  0  0
    1.2606   -0.4136    3.2612 C   0  0  0  0  0  0
    0.7588    0.5331    4.1543 C   0  0  0  0  0  0
    0.2330    0.1255    5.3802 C   0  0  0  0  0  0
    0.7745    1.9885    3.8196 C   0  0  0  0  0  0
    1.3130    2.2608    2.5950 F   0  0  0  0  0  0
   -0.4669    2.5560    3.7988 F   0  0  0  0  0  0
    1.4997    2.7226    4.7117 F   0  0  0  0  0  0
    1.8318    0.0009    1.9360 C   0  0  0  0  0  0
    2.2992   -1.1455    1.1591 N   0  0  0  0  0  0
    3.3057   -0.7320    0.1736 C   0  0  0  0  0  0
    3.7944   -1.9328   -0.6437 C   0  0  0  0  0  0
    2.6711   -2.6031   -1.3098 N   0  0  0  0  0  0
    1.6650   -3.0176   -0.3243 C   0  0  0  0  0  0
    1.1762   -1.8176    0.4942 C   0  0  0  0  0  0
    3.1378   -3.7486   -2.0883 C   0  0  0  0  0  0
   -2.7782   -2.3342   13.1280 H   0  0  0  0  0  0
   -2.5008   -4.1083   13.1784 H   0  0  0  0  0  0
   -4.0217   -3.4565   12.4793 H   0  0  0  0  0  0
   -1.5781   -1.2080   11.5696 H   0  0  0  0  0  0
   -0.4930   -1.0458    9.3659 H   0  0  0  0  0  0
   -1.7765   -5.0428    8.4222 H   0  0  0  0  0  0
   -2.7937   -9.3451   11.1221 H   0  0  0  0  0  0
   -8.4348   -6.4406   12.4189 H   0  0  0  0  0  0
   -9.0718   -8.7924   12.8970 H   0  0  0  0  0  0
   -7.3627  -10.5828   12.6153 H   0  0  0  0  0  0
   -0.6755   -0.7894    7.5417 H   0  0  0  0  0  0
    0.6970   -3.2337    5.0688 H   0  0  0  0  0  0
    1.6251   -2.5135    2.9052 H   0  0  0  0  0  0
   -0.1579    0.8649    6.0759 H   0  0  0  0  0  0
    1.0594    0.5210    1.3504 H   0  0  0  0  0  0
    2.6847    0.6760    2.0994 H   0  0  0  0  0  0
    2.8657    0.0073   -0.5118 H   0  0  0  0  0  0
    4.1654   -0.2840    0.6934 H   0  0  0  0  0  0
    4.5065   -1.5901   -1.4089 H   0  0  0  0  0  0
    4.2912   -2.6526    0.0234 H   0  0  0  0  0  0
    0.8052   -3.4654   -0.8442 H   0  0  0  0  0  0
    2.1054   -3.7574    0.3604 H   0  0  0  0  0  0
    0.4615   -2.1731    1.2511 H   0  0  0  0  0  0
    0.6732   -1.1099   -0.1812 H   0  0  0  0  0  0
    2.2800   -4.2337   -2.5771 H   0  0  0  0  0  0
    3.6343   -4.4680   -1.4205 H   0  0  0  0  0  0
    3.8503   -3.4062   -2.8532 H   0  0  0  0  0  0
  1  2  1  0  0  0
  1 40  1  0  0  0
  1 41  1  0  0  0
  1 42  1  0  0  0
  2  7  2  0  0  0
  2  3  1  0  0  0
  3  4  2  0  0  0
  3 43  1  0  0  0
  4  5  1  0  0  0
  4 44  1  0  0  0
  5  6  2  0  0  0
  5 19  1  0  0  0
  6  7  1  0  0  0
  6 45  1  0  0  0
  7  8  1  0  0  0
  8  9  3  0  0  0
  9 10  1  0  0  0
 10 14  1  0  0  0
 10 11  2  0  0  0
 11 12  1  0  0  0
 11 46  1  0  0  0
 12 13  2  0  0  0
 13 18  1  0  0  0
 13 14  1  0  0  0
 14 15  1  0  0  0
 15 16  2  0  0  0
 16 17  1  0  0  0
 16 47  1  0  0  0
 17 18  2  0  0  0
 17 48  1  0  0  0
 18 49  1  0  0  0
 19 20  2  0  0  0
 19 21  1  0  0  0
 21 22  1  0  0  0
 21 50  1  0  0  0
 22 27  2  0  0  0
 22 23  1  0  0  0
 23 24  2  0  0  0
 23 51  1  0  0  0
 24 25  1  0  0  0
 24 52  1  0  0  0
 25 26  2  0  0  0
 25 32  1  0  0  0
 26 27  1  0  0  0
 26 28  1  0  0  0
 27 53  1  0  0  0
 28 29  1  0  0  0
 28 30  1  0  0  0
 28 31  1  0  0  0
 32 33  1  0  0  0
 32 54  1  0  0  0
 32 55  1  0  0  0
 33 38  1  0  0  0
 33 34  1  0  0  0
 34 35  1  0  0  0
 34 56  1  0  0  0
 34 57  1  0  0  0
 35 36  1  0  0  0
 35 58  1  0  0  0
 35 59  1  0  0  0
 36 37  1  0  0  0
 36 39  1  0  0  0
 37 38  1  0  0  0
 37 60  1  0  0  0
 37 61  1  0  0  0
 38 62  1  0  0  0
 38 63  1  0  0  0
 39 64  1  0  0  0
 39 65  1  0  0  0
 39 66  1  0  0  0
M  END
> <s_m_source_file>
/Users/choderaj/github/choderalab/mcce-charges/mcce-charges.jchodera/epik_inhibitors/output/Ponatinib/Ponatinib-input.mol2

> <i_m_source_file_index>
1

> <r_epik_Ionization_Penalty>
  3.0678

> <r_epik_Ionization_Penalty_Charging>
  0.0001

> <r_epik_Ionization_Penalty_Neutral>
  3.0677

> <r_epik_State_Penalty>
  2.0305

> <i_epik_Tot_Q>
0

$$$$
