@<TRIPOS>MOLECULE
3-(2-imidazo[1,2-b]pyridazin-3-ylethynyl)-4-methyl-~{N}-[4-[(4-methylpiperazin-1-yl)methyl]-3-(trifluoromethyl)phenyl]benzamide
67   71    1
SMALL
USER_CHARGES


@<TRIPOS>ATOM
      1 C1         -2.9418   -3.2843   12.5983 C.3       1 PON        -0.0720 
      2 C2         -2.2958   -3.2216   11.2515 C.ar      1 PON        -0.0177 
      3 C3         -1.6272   -2.0527   10.8874 C.ar      1 PON        -0.1474 
      4 C4         -1.0132   -1.9606    9.6384 C.ar      1 PON        -0.0930 
      5 C5         -1.0678   -3.0373    8.7533 C.ar      1 PON        -0.1633 
      6 C6         -1.7364   -4.2061    9.1173 C.ar      1 PON        -0.0423 
      7 C7         -2.3504   -4.2983   10.3664 C.ar      1 PON         0.0162 
      8 C8         -3.0314   -5.5075   10.7163 C.1       1 PON        -0.0828 
      9 C9         -3.6024   -6.5219   11.0098 C.1       1 PON        -0.0635 
     10 C10        -4.2827   -7.7307   11.3594 C.ar      1 PON        -0.0926 
     11 C11        -3.7916   -9.0142   11.3734 C.ar      1 PON         0.3663 
     12 N1         -4.7537   -9.9093   11.7663 N.2       1 PON        -0.6476 
     13 C12        -5.8302   -9.1840   11.9931 C.ar      1 PON         0.4170 
     14 N2         -5.5891   -7.8415   11.7567 N.pl3     1 PON         0.0726 
     15 N3         -6.4721   -6.8120   11.8891 N.2       1 PON        -0.4866 
     16 C13        -7.6461   -7.1981   12.2815 C.ar      1 PON         0.3967 
     17 C14        -8.0594   -8.5914   12.5747 C.ar      1 PON        -0.2602 
     18 C15        -7.1307   -9.5420   12.4190 C.ar      1 PON        -0.1538 
     19 C16        -0.4207   -2.9381    7.4338 C.2       1 PON         0.6868 
     20 O1         -0.0486   -3.9446    6.8344 O.2       1 PON        -0.5829 
     21 N4         -0.3170   -1.6370    6.9392 N.am      1 PON        -0.4685 
     22 C17         0.2089   -1.2288    5.7131 C.ar      1 PON         0.0683 
     23 C18         0.7107   -2.1756    4.8200 C.ar      1 PON        -0.1359 
     24 C19         1.2365   -1.7680    3.5941 C.ar      1 PON        -0.0992 
     25 C20         1.2606   -0.4136    3.2612 C.ar      1 PON        -0.0512 
     26 C21         0.7588    0.5331    4.1543 C.ar      1 PON        -0.1409 
     27 C22         0.2330    0.1255    5.3802 C.ar      1 PON        -0.1507 
     28 C23         0.7745    1.9885    3.8196 C.3       1 PON         0.6868 
     29 F1          1.3130    2.2608    2.5950 F         1 PON        -0.2400 
     30 F2         -0.4669    2.5560    3.7988 F         1 PON        -0.2400 
     31 F3          1.4997    2.7226    4.7117 F         1 PON        -0.2400 
     32 C24         1.8318    0.0009    1.9360 C.3       1 PON         0.2173 
     33 N5          2.2992   -1.1455    1.1591 N.4       1 PON        -0.7521 
     34 C25         3.3057   -0.7320    0.1736 C.3       1 PON         0.1744 
     35 C26         3.7944   -1.9328   -0.6437 C.3       1 PON         0.1721 
     36 N6          2.6711   -2.6031   -1.3098 N.3       1 PON        -0.7415 
     37 C27         1.6650   -3.0176   -0.3243 C.3       1 PON         0.1721 
     38 C28         1.1762   -1.8176    0.4942 C.3       1 PON         0.1744 
     39 C29         3.1378   -3.7486   -2.0883 C.3       1 PON         0.1612 
     40 H1         -2.7781   -2.3343   13.1280 H         1 PON         0.0566 
     41 H2         -2.5008   -4.1083   13.1784 H         1 PON         0.0566 
     42 H3         -4.0217   -3.4565   12.4793 H         1 PON         0.0566 
     43 H4         -1.5781   -1.2080   11.5696 H         1 PON         0.1431 
     44 H5         -0.4930   -1.0458    9.3659 H         1 PON         0.1377 
     45 H6         -1.7765   -5.0428    8.4222 H         1 PON         0.1674 
     46 H7         -2.7937   -9.3451   11.1221 H         1 PON         0.0564 
     47 H8         -8.4348   -6.4406   12.4189 H         1 PON         0.0534 
     48 H9         -9.0718   -8.7924   12.8970 H         1 PON         0.1577 
     49 H10        -7.3627  -10.5828   12.6153 H         1 PON         0.1708 
     50 H11        -0.6755   -0.7894    7.5417 H         1 PON         0.3223 
     51 H12         0.6970   -3.2337    5.0688 H         1 PON         0.1821 
     52 H13         1.6251   -2.5135    2.9052 H         1 PON         0.1638 
     53 H14        -0.1578    0.8649    6.0759 H         1 PON         0.1435 
     54 H15         1.0594    0.5210    1.3504 H         1 PON         0.0565 
     55 H16         2.6847    0.6760    2.0994 H         1 PON         0.0565 
     56 H17         2.8657    0.0073   -0.5118 H         1 PON         0.0397 
     57 H18         4.1654   -0.2840    0.6934 H         1 PON         0.0397 
     58 H19         4.5065   -1.5901   -1.4089 H         1 PON         0.0369 
     59 H20         4.2912   -2.6526    0.0234 H         1 PON         0.0369 
     60 H21         0.8052   -3.4654   -0.8442 H         1 PON         0.0369 
     61 H22         2.1054   -3.7574    0.3604 H         1 PON         0.0369 
     62 H23         0.4615   -2.1731    1.2511 H         1 PON         0.0397 
     63 H24         0.6732   -1.1099   -0.1812 H         1 PON         0.0397 
     64 H25         2.2800   -4.2337   -2.5771 H         1 PON         0.0320 
     65 H26         3.6343   -4.4680   -1.4205 H         1 PON         0.0320 
     66 H27         3.8503   -3.4062   -2.8532 H         1 PON         0.0320 
     67 H67         2.7661   -1.8555    1.8576 H         1 PON         0.0000 
@<TRIPOS>BOND
     1    1    2 1    
     2    1   40 1    
     3    1   41 1    
     4    1   42 1    
     5    2    7 ar   
     6    2    3 ar   
     7    3    4 ar   
     8    3   43 1    
     9    4    5 ar   
    10    4   44 1    
    11    5    6 ar   
    12    5   19 1    
    13    6    7 ar   
    14    6   45 1    
    15    7    8 1    
    16    8    9 3    
    17    9   10 1    
    18   10   14 ar   
    19   10   11 ar   
    20   11   12 ar   
    21   11   46 1    
    22   12   13 ar   
    23   13   18 ar   
    24   13   14 ar   
    25   14   15 ar   
    26   15   16 ar   
    27   16   17 ar   
    28   16   47 1    
    29   17   18 ar   
    30   17   48 1    
    31   18   49 1    
    32   19   20 2    
    33   19   21 am   BACKBONE|DICT|INTERRES
    34   21   22 1    
    35   21   50 1    
    36   22   27 ar   
    37   22   23 ar   
    38   23   24 ar   
    39   23   51 1    
    40   24   25 ar   
    41   24   52 1    
    42   25   26 ar   
    43   25   32 1    
    44   26   27 ar   
    45   26   28 1    
    46   27   53 1    
    47   28   29 1    
    48   28   30 1    
    49   28   31 1    
    50   32   33 1    
    51   32   54 1    
    52   32   55 1    
    53   33   38 1    
    54   33   34 1    
    55   33   67 1    
    56   34   35 1    
    57   34   56 1    
    58   34   57 1    
    59   35   36 1    
    60   35   58 1    
    61   35   59 1    
    62   36   37 1    
    63   36   39 1    
    64   37   38 1    
    65   37   60 1    
    66   37   61 1    
    67   38   62 1    
    68   38   63 1    
    69   39   64 1    
    70   39   65 1    
    71   39   66 1    
@<TRIPOS>SUBSTRUCTURE
     1 PON         1 GROUP             0       ****    0 ROOT    
@<TRIPOS>MOLECULE
3-(2-imidazo[1,2-b]pyridazin-3-ylethynyl)-4-methyl-~{N}-[4-[(4-methylpiperazin-1-yl)methyl]-3-(trifluoromethyl)phenyl]benzamide
67   71    1
SMALL
USER_CHARGES


@<TRIPOS>ATOM
      1 C1         -2.9418   -3.2843   12.5983 C.3       1 PON        -0.0720 
      2 C2         -2.2958   -3.2216   11.2515 C.ar      1 PON        -0.0177 
      3 C3         -1.6272   -2.0527   10.8874 C.ar      1 PON        -0.1474 
      4 C4         -1.0132   -1.9606    9.6384 C.ar      1 PON        -0.0930 
      5 C5         -1.0678   -3.0373    8.7533 C.ar      1 PON        -0.1633 
      6 C6         -1.7364   -4.2061    9.1173 C.ar      1 PON        -0.0423 
      7 C7         -2.3504   -4.2983   10.3664 C.ar      1 PON         0.0162 
      8 C8         -3.0314   -5.5075   10.7163 C.1       1 PON        -0.0828 
      9 C9         -3.6024   -6.5219   11.0098 C.1       1 PON        -0.0635 
     10 C10        -4.2827   -7.7307   11.3594 C.ar      1 PON        -0.0926 
     11 C11        -3.7916   -9.0142   11.3734 C.ar      1 PON         0.3663 
     12 N1         -4.7537   -9.9093   11.7663 N.2       1 PON        -0.6476 
     13 C12        -5.8302   -9.1840   11.9931 C.ar      1 PON         0.4170 
     14 N2         -5.5891   -7.8415   11.7567 N.pl3     1 PON         0.0726 
     15 N3         -6.4721   -6.8120   11.8891 N.2       1 PON        -0.4866 
     16 C13        -7.6461   -7.1981   12.2815 C.ar      1 PON         0.3967 
     17 C14        -8.0594   -8.5914   12.5747 C.ar      1 PON        -0.2602 
     18 C15        -7.1307   -9.5420   12.4190 C.ar      1 PON        -0.1538 
     19 C16        -0.4207   -2.9381    7.4338 C.2       1 PON         0.6868 
     20 O1         -0.0486   -3.9446    6.8344 O.2       1 PON        -0.5829 
     21 N4         -0.3170   -1.6370    6.9392 N.am      1 PON        -0.4685 
     22 C17         0.2089   -1.2288    5.7131 C.ar      1 PON         0.0683 
     23 C18         0.7107   -2.1756    4.8200 C.ar      1 PON        -0.1359 
     24 C19         1.2365   -1.7680    3.5941 C.ar      1 PON        -0.0992 
     25 C20         1.2606   -0.4136    3.2612 C.ar      1 PON        -0.0512 
     26 C21         0.7588    0.5331    4.1543 C.ar      1 PON        -0.1409 
     27 C22         0.2330    0.1255    5.3802 C.ar      1 PON        -0.1507 
     28 C23         0.7745    1.9885    3.8196 C.3       1 PON         0.6868 
     29 F1          1.3130    2.2608    2.5950 F         1 PON        -0.2400 
     30 F2         -0.4669    2.5560    3.7988 F         1 PON        -0.2400 
     31 F3          1.4997    2.7226    4.7117 F         1 PON        -0.2400 
     32 C24         1.8318    0.0009    1.9360 C.3       1 PON         0.2173 
     33 N5          2.2992   -1.1455    1.1591 N.3       1 PON        -0.7521 
     34 C25         3.3057   -0.7320    0.1736 C.3       1 PON         0.1744 
     35 C26         3.7944   -1.9328   -0.6437 C.3       1 PON         0.1721 
     36 N6          2.6711   -2.6031   -1.3098 N.4       1 PON        -0.7415 
     37 C27         1.6650   -3.0176   -0.3243 C.3       1 PON         0.1721 
     38 C28         1.1762   -1.8176    0.4942 C.3       1 PON         0.1744 
     39 C29         3.1378   -3.7486   -2.0883 C.3       1 PON         0.1612 
     40 H1         -2.7781   -2.3343   13.1280 H         1 PON         0.0566 
     41 H2         -2.5008   -4.1083   13.1784 H         1 PON         0.0566 
     42 H3         -4.0217   -3.4565   12.4793 H         1 PON         0.0566 
     43 H4         -1.5781   -1.2080   11.5696 H         1 PON         0.1431 
     44 H5         -0.4930   -1.0458    9.3659 H         1 PON         0.1377 
     45 H6         -1.7765   -5.0428    8.4222 H         1 PON         0.1674 
     46 H7         -2.7937   -9.3451   11.1221 H         1 PON         0.0564 
     47 H8         -8.4348   -6.4406   12.4189 H         1 PON         0.0534 
     48 H9         -9.0718   -8.7924   12.8970 H         1 PON         0.1577 
     49 H10        -7.3627  -10.5828   12.6153 H         1 PON         0.1708 
     50 H11        -0.6755   -0.7894    7.5417 H         1 PON         0.3223 
     51 H12         0.6970   -3.2337    5.0688 H         1 PON         0.1821 
     52 H13         1.6251   -2.5135    2.9052 H         1 PON         0.1638 
     53 H14        -0.1578    0.8649    6.0759 H         1 PON         0.1435 
     54 H15         1.0594    0.5210    1.3504 H         1 PON         0.0565 
     55 H16         2.6847    0.6760    2.0994 H         1 PON         0.0565 
     56 H17         2.8657    0.0073   -0.5118 H         1 PON         0.0397 
     57 H18         4.1654   -0.2840    0.6934 H         1 PON         0.0397 
     58 H19         4.5065   -1.5901   -1.4089 H         1 PON         0.0369 
     59 H20         4.2912   -2.6526    0.0234 H         1 PON         0.0369 
     60 H21         0.8052   -3.4654   -0.8442 H         1 PON         0.0369 
     61 H22         2.1054   -3.7574    0.3604 H         1 PON         0.0369 
     62 H23         0.4615   -2.1731    1.2511 H         1 PON         0.0397 
     63 H24         0.6732   -1.1099   -0.1812 H         1 PON         0.0397 
     64 H25         2.2800   -4.2337   -2.5771 H         1 PON         0.0320 
     65 H26         3.6343   -4.4680   -1.4205 H         1 PON         0.0320 
     66 H27         3.8503   -3.4062   -2.8532 H         1 PON         0.0320 
     67 H67         2.2045   -1.8921   -2.0075 H         1 PON         0.0000 
@<TRIPOS>BOND
     1    1    2 1    
     2    1   40 1    
     3    1   41 1    
     4    1   42 1    
     5    2    7 ar   
     6    2    3 ar   
     7    3    4 ar   
     8    3   43 1    
     9    4    5 ar   
    10    4   44 1    
    11    5    6 ar   
    12    5   19 1    
    13    6    7 ar   
    14    6   45 1    
    15    7    8 1    
    16    8    9 3    
    17    9   10 1    
    18   10   14 ar   
    19   10   11 ar   
    20   11   12 ar   
    21   11   46 1    
    22   12   13 ar   
    23   13   18 ar   
    24   13   14 ar   
    25   14   15 ar   
    26   15   16 ar   
    27   16   17 ar   
    28   16   47 1    
    29   17   18 ar   
    30   17   48 1    
    31   18   49 1    
    32   19   20 2    
    33   19   21 am   BACKBONE|DICT|INTERRES
    34   21   22 1    
    35   21   50 1    
    36   22   27 ar   
    37   22   23 ar   
    38   23   24 ar   
    39   23   51 1    
    40   24   25 ar   
    41   24   52 1    
    42   25   26 ar   
    43   25   32 1    
    44   26   27 ar   
    45   26   28 1    
    46   27   53 1    
    47   28   29 1    
    48   28   30 1    
    49   28   31 1    
    50   32   33 1    
    51   32   54 1    
    52   32   55 1    
    53   33   38 1    
    54   33   34 1    
    55   34   35 1    
    56   34   56 1    
    57   34   57 1    
    58   35   36 1    
    59   35   58 1    
    60   35   59 1    
    61   36   37 1    
    62   36   39 1    
    63   36   67 1    
    64   37   38 1    
    65   37   60 1    
    66   37   61 1    
    67   38   62 1    
    68   38   63 1    
    69   39   64 1    
    70   39   65 1    
    71   39   66 1    
@<TRIPOS>SUBSTRUCTURE
     1 PON         1 GROUP             0       ****    0 ROOT    
@<TRIPOS>MOLECULE
3-(2-imidazo[1,2-b]pyridazin-3-ylethynyl)-4-methyl-~{N}-[4-[(4-methylpiperazin-1-yl)methyl]-3-(trifluoromethyl)phenyl]benzamide
66   70    1
SMALL
USER_CHARGES


@<TRIPOS>ATOM
      1 C1         -2.9418   -3.2843   12.5983 C.3       1 PON        -0.0720 
      2 C2         -2.2958   -3.2216   11.2515 C.ar      1 PON        -0.0177 
      3 C3         -1.6272   -2.0527   10.8874 C.ar      1 PON        -0.1474 
      4 C4         -1.0132   -1.9606    9.6384 C.ar      1 PON        -0.0930 
      5 C5         -1.0678   -3.0373    8.7533 C.ar      1 PON        -0.1633 
      6 C6         -1.7364   -4.2061    9.1173 C.ar      1 PON        -0.0423 
      7 C7         -2.3504   -4.2983   10.3664 C.ar      1 PON         0.0162 
      8 C8         -3.0314   -5.5075   10.7163 C.1       1 PON        -0.0828 
      9 C9         -3.6024   -6.5219   11.0098 C.1       1 PON        -0.0635 
     10 C10        -4.2827   -7.7307   11.3594 C.ar      1 PON        -0.0926 
     11 C11        -3.7916   -9.0142   11.3734 C.ar      1 PON         0.3663 
     12 N1         -4.7537   -9.9093   11.7663 N.2       1 PON        -0.6476 
     13 C12        -5.8302   -9.1840   11.9931 C.ar      1 PON         0.4170 
     14 N2         -5.5891   -7.8415   11.7567 N.pl3     1 PON         0.0726 
     15 N3         -6.4721   -6.8120   11.8891 N.2       1 PON        -0.4866 
     16 C13        -7.6461   -7.1981   12.2815 C.ar      1 PON         0.3967 
     17 C14        -8.0594   -8.5914   12.5747 C.ar      1 PON        -0.2602 
     18 C15        -7.1307   -9.5420   12.4190 C.ar      1 PON        -0.1538 
     19 C16        -0.4207   -2.9381    7.4338 C.2       1 PON         0.6868 
     20 O1         -0.0486   -3.9446    6.8344 O.2       1 PON        -0.5829 
     21 N4         -0.3170   -1.6370    6.9392 N.am      1 PON        -0.4685 
     22 C17         0.2089   -1.2288    5.7131 C.ar      1 PON         0.0683 
     23 C18         0.7107   -2.1756    4.8200 C.ar      1 PON        -0.1359 
     24 C19         1.2365   -1.7680    3.5941 C.ar      1 PON        -0.0992 
     25 C20         1.2606   -0.4136    3.2612 C.ar      1 PON        -0.0512 
     26 C21         0.7588    0.5331    4.1543 C.ar      1 PON        -0.1409 
     27 C22         0.2330    0.1255    5.3802 C.ar      1 PON        -0.1507 
     28 C23         0.7745    1.9885    3.8196 C.3       1 PON         0.6868 
     29 F1          1.3130    2.2608    2.5950 F         1 PON        -0.2400 
     30 F2         -0.4669    2.5560    3.7988 F         1 PON        -0.2400 
     31 F3          1.4997    2.7226    4.7117 F         1 PON        -0.2400 
     32 C24         1.8318    0.0009    1.9360 C.3       1 PON         0.2173 
     33 N5          2.2992   -1.1455    1.1591 N.3       1 PON        -0.7521 
     34 C25         3.3057   -0.7320    0.1736 C.3       1 PON         0.1744 
     35 C26         3.7944   -1.9328   -0.6437 C.3       1 PON         0.1721 
     36 N6          2.6711   -2.6031   -1.3098 N.3       1 PON        -0.7415 
     37 C27         1.6650   -3.0176   -0.3243 C.3       1 PON         0.1721 
     38 C28         1.1762   -1.8176    0.4942 C.3       1 PON         0.1744 
     39 C29         3.1378   -3.7486   -2.0883 C.3       1 PON         0.1612 
     40 H1         -2.7781   -2.3343   13.1280 H         1 PON         0.0566 
     41 H2         -2.5008   -4.1083   13.1784 H         1 PON         0.0566 
     42 H3         -4.0217   -3.4565   12.4793 H         1 PON         0.0566 
     43 H4         -1.5781   -1.2080   11.5696 H         1 PON         0.1431 
     44 H5         -0.4930   -1.0458    9.3659 H         1 PON         0.1377 
     45 H6         -1.7765   -5.0428    8.4222 H         1 PON         0.1674 
     46 H7         -2.7937   -9.3451   11.1221 H         1 PON         0.0564 
     47 H8         -8.4348   -6.4406   12.4189 H         1 PON         0.0534 
     48 H9         -9.0718   -8.7924   12.8970 H         1 PON         0.1577 
     49 H10        -7.3627  -10.5828   12.6153 H         1 PON         0.1708 
     50 H11        -0.6755   -0.7894    7.5417 H         1 PON         0.3223 
     51 H12         0.6970   -3.2337    5.0688 H         1 PON         0.1821 
     52 H13         1.6251   -2.5135    2.9052 H         1 PON         0.1638 
     53 H14        -0.1578    0.8649    6.0759 H         1 PON         0.1435 
     54 H15         1.0594    0.5210    1.3504 H         1 PON         0.0565 
     55 H16         2.6847    0.6760    2.0994 H         1 PON         0.0565 
     56 H17         2.8657    0.0073   -0.5118 H         1 PON         0.0397 
     57 H18         4.1654   -0.2840    0.6934 H         1 PON         0.0397 
     58 H19         4.5065   -1.5901   -1.4089 H         1 PON         0.0369 
     59 H20         4.2912   -2.6526    0.0234 H         1 PON         0.0369 
     60 H21         0.8052   -3.4654   -0.8442 H         1 PON         0.0369 
     61 H22         2.1054   -3.7574    0.3604 H         1 PON         0.0369 
     62 H23         0.4615   -2.1731    1.2511 H         1 PON         0.0397 
     63 H24         0.6732   -1.1099   -0.1812 H         1 PON         0.0397 
     64 H25         2.2800   -4.2337   -2.5771 H         1 PON         0.0320 
     65 H26         3.6343   -4.4680   -1.4205 H         1 PON         0.0320 
     66 H27         3.8503   -3.4062   -2.8532 H         1 PON         0.0320 
@<TRIPOS>BOND
     1    1    2 1    
     2    1   40 1    
     3    1   41 1    
     4    1   42 1    
     5    2    7 ar   
     6    2    3 ar   
     7    3    4 ar   
     8    3   43 1    
     9    4    5 ar   
    10    4   44 1    
    11    5    6 ar   
    12    5   19 1    
    13    6    7 ar   
    14    6   45 1    
    15    7    8 1    
    16    8    9 3    
    17    9   10 1    
    18   10   14 ar   
    19   10   11 ar   
    20   11   12 ar   
    21   11   46 1    
    22   12   13 ar   
    23   13   18 ar   
    24   13   14 ar   
    25   14   15 ar   
    26   15   16 ar   
    27   16   17 ar   
    28   16   47 1    
    29   17   18 ar   
    30   17   48 1    
    31   18   49 1    
    32   19   20 2    
    33   19   21 am   BACKBONE|DICT|INTERRES
    34   21   22 1    
    35   21   50 1    
    36   22   27 ar   
    37   22   23 ar   
    38   23   24 ar   
    39   23   51 1    
    40   24   25 ar   
    41   24   52 1    
    42   25   26 ar   
    43   25   32 1    
    44   26   27 ar   
    45   26   28 1    
    46   27   53 1    
    47   28   29 1    
    48   28   30 1    
    49   28   31 1    
    50   32   33 1    
    51   32   54 1    
    52   32   55 1    
    53   33   38 1    
    54   33   34 1    
    55   34   35 1    
    56   34   56 1    
    57   34   57 1    
    58   35   36 1    
    59   35   58 1    
    60   35   59 1    
    61   36   37 1    
    62   36   39 1    
    63   37   38 1    
    64   37   60 1    
    65   37   61 1    
    66   38   62 1    
    67   38   63 1    
    68   39   64 1    
    69   39   65 1    
    70   39   66 1    
@<TRIPOS>SUBSTRUCTURE
     1 PON         1 GROUP             0       ****    0 ROOT    
