(3~{R})-3-cyclopentyl-3-[4-(7~{H}-pyrrolo[2,3-d]pyrimidin-4-yl)pyrazol-1-yl]propanenitrile
                    3D
 Structure written by MMmdl.
 41 44  0  0  1  0            999 V2000
   -0.9812   -7.4834   -5.1473 C   0  0  0  0  0  0
   -1.5079   -8.7144   -5.4764 C   0  0  0  0  0  0
   -1.9439   -8.6576   -6.7753 N   0  0  0  0  0  0
   -1.7031   -7.4089   -7.2839 C   0  0  0  0  0  0
   -1.1006   -6.6495   -6.2884 C   0  0  0  0  0  0
   -0.7747   -5.3344   -6.6167 C   0  0  0  0  0  0
   -1.0517   -4.8681   -7.8564 N   0  0  0  0  0  0
   -1.6410   -5.7209   -8.7246 C   0  0  0  0  0  0
   -2.0036   -7.0052   -8.5306 N   0  0  0  0  0  0
   -0.1502   -4.4598   -5.6734 C   0  0  0  0  0  0
    0.7260   -4.7205   -4.6028 C   0  0  0  0  0  0
    1.0895   -3.6120   -3.9523 N   0  0  0  0  0  0
    0.4386   -2.6415   -4.6160 N   0  0  0  0  0  0
   -0.3181   -3.0967   -5.6555 C   0  0  0  0  0  0
    0.5910   -1.1933   -4.1767 C   0  0  2  0  0  0
   -0.0087   -0.5980   -4.8809 H   0  0  0  0  0  0
    2.0473   -0.6925   -4.2512 C   0  0  0  0  0  0
    2.5875   -0.7686   -5.6183 C   0  0  0  0  0  0
    3.0135   -0.8272   -6.6960 N   0  0  0  0  0  0
    0.0448   -0.9981   -2.7731 C   0  0  0  0  0  0
    0.0775    0.4555   -2.3117 C   0  0  0  0  0  0
   -0.8976    0.4947   -1.1390 C   0  0  0  0  0  0
   -1.8642   -0.6718   -1.3506 C   0  0  0  0  0  0
   -1.4354   -1.3452   -2.6501 C   0  0  0  0  0  0
   -0.5580   -7.2230   -4.1869 H   0  0  0  0  0  0
   -1.6115   -9.6244   -4.9023 H   0  0  0  0  0  0
   -2.4036   -9.5421   -7.2403 H   0  0  0  0  0  0
   -1.8499   -5.3166   -9.7093 H   0  0  0  0  0  0
    1.1171   -5.6707   -4.2667 H   0  0  0  0  0  0
   -0.8958   -2.4250   -6.2767 H   0  0  0  0  0  0
    2.0916    0.3563   -3.9224 H   0  0  0  0  0  0
    2.6810   -1.3090   -3.5968 H   0  0  0  0  0  0
    0.6966   -1.6571   -2.1807 H   0  0  0  0  0  0
    1.1009    0.7208   -2.0079 H   0  0  0  0  0  0
   -0.2412    1.1094   -3.1368 H   0  0  0  0  0  0
   -0.3420    0.3828   -0.1963 H   0  0  0  0  0  0
   -1.4315    1.4565   -1.1380 H   0  0  0  0  0  0
   -1.7918   -1.3667   -0.5010 H   0  0  0  0  0  0
   -2.8923   -0.2875   -1.4234 H   0  0  0  0  0  0
   -1.9784   -0.9496   -3.5211 H   0  0  0  0  0  0
   -1.5536   -2.4381   -2.6097 H   0  0  0  0  0  0
  1  5  1  0  0  0
  1  2  2  0  0  0
  1 25  1  0  0  0
  2  3  1  0  0  0
  2 26  1  0  0  0
  3  4  1  0  0  0
  3 27  1  0  0  0
  4  9  2  0  0  0
  4  5  1  0  0  0
  5  6  2  0  0  0
  6  7  1  0  0  0
  6 10  1  0  0  0
  7  8  2  0  0  0
  8  9  1  0  0  0
  8 28  1  0  0  0
 10 14  2  0  0  0
 10 11  1  0  0  0
 11 12  2  0  0  0
 11 29  1  0  0  0
 12 13  1  0  0  0
 13 14  1  0  0  0
 13 15  1  0  0  0
 14 30  1  0  0  0
 15 16  1  0  0  0
 15 17  1  0  0  0
 15 20  1  0  0  0
 17 18  1  0  0  0
 17 31  1  0  0  0
 17 32  1  0  0  0
 18 19  3  0  0  0
 20 24  1  0  0  0
 20 21  1  0  0  0
 20 33  1  0  0  0
 21 22  1  0  0  0
 21 34  1  0  0  0
 21 35  1  0  0  0
 22 23  1  0  0  0
 22 36  1  0  0  0
 22 37  1  0  0  0
 23 24  1  0  0  0
 23 38  1  0  0  0
 23 39  1  0  0  0
 24 40  1  0  0  0
 24 41  1  0  0  0
M  END
> <s_m_source_file>
/Users/choderaj/github/choderalab/mcce-charges/mcce-charges.jchodera/epik_inhibitors/output/Ruxolitinib/Ruxolitinib-input.mol2

> <i_m_source_file_index>
1

> <r_lp_tautomer_probability>
0.999998369746258

> <r_epik_Ionization_Penalty>
  0.0001

> <r_epik_Ionization_Penalty_Charging>
  0.0000

> <r_epik_Ionization_Penalty_Neutral>
  0.0001

> <r_epik_State_Penalty>
  0.0001

> <i_epik_Tot_Q>
0

$$$$
(3~{R})-3-cyclopentyl-3-[4-(7~{H}-pyrrolo[2,3-d]pyrimidin-4-yl)pyrazol-1-yl]propanenitrile
                    3D
 Structure written by MMmdl.
 40 43  0  0  1  0            999 V2000
   -0.9812   -7.4834   -5.1473 C   0  0  0  0  0  0
   -1.5079   -8.7144   -5.4764 C   0  0  0  0  0  0
   -1.9439   -8.6576   -6.7753 N   0  5  0  0  0  0
   -1.7031   -7.4089   -7.2839 C   0  0  0  0  0  0
   -1.1006   -6.6495   -6.2884 C   0  0  0  0  0  0
   -0.7747   -5.3344   -6.6167 C   0  0  0  0  0  0
   -1.0517   -4.8681   -7.8564 N   0  0  0  0  0  0
   -1.6410   -5.7209   -8.7246 C   0  0  0  0  0  0
   -2.0036   -7.0052   -8.5306 N   0  0  0  0  0  0
   -0.1502   -4.4598   -5.6734 C   0  0  0  0  0  0
    0.7260   -4.7205   -4.6028 C   0  0  0  0  0  0
    1.0895   -3.6120   -3.9523 N   0  0  0  0  0  0
    0.4386   -2.6415   -4.6160 N   0  0  0  0  0  0
   -0.3181   -3.0967   -5.6555 C   0  0  0  0  0  0
    0.5910   -1.1933   -4.1767 C   0  0  2  0  0  0
   -0.0087   -0.5980   -4.8809 H   0  0  0  0  0  0
    2.0473   -0.6925   -4.2512 C   0  0  0  0  0  0
    2.5875   -0.7686   -5.6183 C   0  0  0  0  0  0
    3.0135   -0.8272   -6.6960 N   0  0  0  0  0  0
    0.0448   -0.9981   -2.7731 C   0  0  0  0  0  0
    0.0775    0.4555   -2.3117 C   0  0  0  0  0  0
   -0.8976    0.4947   -1.1390 C   0  0  0  0  0  0
   -1.8642   -0.6718   -1.3506 C   0  0  0  0  0  0
   -1.4354   -1.3452   -2.6501 C   0  0  0  0  0  0
   -0.5580   -7.2230   -4.1869 H   0  0  0  0  0  0
   -1.6115   -9.6244   -4.9023 H   0  0  0  0  0  0
   -1.8499   -5.3166   -9.7093 H   0  0  0  0  0  0
    1.1171   -5.6707   -4.2667 H   0  0  0  0  0  0
   -0.8958   -2.4250   -6.2767 H   0  0  0  0  0  0
    2.0916    0.3563   -3.9224 H   0  0  0  0  0  0
    2.6810   -1.3090   -3.5968 H   0  0  0  0  0  0
    0.6966   -1.6571   -2.1807 H   0  0  0  0  0  0
    1.1009    0.7208   -2.0079 H   0  0  0  0  0  0
   -0.2412    1.1094   -3.1368 H   0  0  0  0  0  0
   -0.3420    0.3828   -0.1963 H   0  0  0  0  0  0
   -1.4315    1.4565   -1.1380 H   0  0  0  0  0  0
   -1.7918   -1.3667   -0.5010 H   0  0  0  0  0  0
   -2.8923   -0.2875   -1.4234 H   0  0  0  0  0  0
   -1.9784   -0.9496   -3.5211 H   0  0  0  0  0  0
   -1.5536   -2.4381   -2.6097 H   0  0  0  0  0  0
  1  5  1  0  0  0
  1  2  2  0  0  0
  1 25  1  0  0  0
  2  3  1  0  0  0
  2 26  1  0  0  0
  3  4  1  0  0  0
  4  9  2  0  0  0
  4  5  1  0  0  0
  5  6  2  0  0  0
  6  7  1  0  0  0
  6 10  1  0  0  0
  7  8  2  0  0  0
  8  9  1  0  0  0
  8 27  1  0  0  0
 10 14  2  0  0  0
 10 11  1  0  0  0
 11 12  2  0  0  0
 11 28  1  0  0  0
 12 13  1  0  0  0
 13 14  1  0  0  0
 13 15  1  0  0  0
 14 29  1  0  0  0
 15 16  1  0  0  0
 15 17  1  0  0  0
 15 20  1  0  0  0
 17 18  1  0  0  0
 17 30  1  0  0  0
 17 31  1  0  0  0
 18 19  3  0  0  0
 20 24  1  0  0  0
 20 21  1  0  0  0
 20 32  1  0  0  0
 21 22  1  0  0  0
 21 33  1  0  0  0
 21 34  1  0  0  0
 22 23  1  0  0  0
 22 35  1  0  0  0
 22 36  1  0  0  0
 23 24  1  0  0  0
 23 37  1  0  0  0
 23 38  1  0  0  0
 24 39  1  0  0  0
 24 40  1  0  0  0
M  CHG  1   3  -1
M  END
> <s_m_source_file>
/Users/choderaj/github/choderalab/mcce-charges/mcce-charges.jchodera/epik_inhibitors/output/Ruxolitinib/Ruxolitinib-input.mol2

> <i_m_source_file_index>
1

> <r_lp_tautomer_probability>
1

> <r_epik_Ionization_Penalty>
  5.1584

> <r_epik_Ionization_Penalty_Charging>
  5.1584

> <r_epik_Ionization_Penalty_Neutral>
  0.0000

> <r_epik_State_Penalty>
  5.5044

> <i_epik_Tot_Q>
-1

$$$$
