@<TRIPOS>MOLECULE
(3~{R})-3-cyclopentyl-3-[4-(7~{H}-pyrrolo[2,3-d]pyrimidin-4-yl)pyrazol-1-yl]propanenitrile
   41    44     0     0     0
SMALL
USER_CHARGES

@<TRIPOS>ATOM
      1 C1         -0.9812   -7.4834   -5.1473 C.2       1 RUX        -0.1578
      2 C2         -1.5079   -8.7144   -5.4764 C.2       1 RUX        -0.0013
      3 N1         -1.9439   -8.6576   -6.7753 N.pl3     1 RUX        -0.6771
      4 C3         -1.7031   -7.4089   -7.2839 C.ar      1 RUX         0.5696
      5 C4         -1.1006   -6.6495   -6.2884 C.ar      1 RUX        -0.3119
      6 C5         -0.7747   -5.3344   -6.6167 C.ar      1 RUX         0.5810
      7 N2         -1.0517   -4.8681   -7.8564 N.ar      1 RUX        -0.7076
      8 C6         -1.6410   -5.7209   -8.7246 C.ar      1 RUX         0.6408
      9 N3         -2.0036   -7.0052   -8.5306 N.ar      1 RUX        -0.6988
     10 C7         -0.1502   -4.4598   -5.6734 C.2       1 RUX        -0.3314
     11 C8          0.7260   -4.7205   -4.6028 C.2       1 RUX         0.3423
     12 N4          1.0895   -3.6120   -3.9523 N.2       1 RUX        -0.5214
     13 N5          0.4386   -2.6415   -4.6160 N.pl3     1 RUX         0.0828
     14 C9         -0.3181   -3.0967   -5.6555 C.2       1 RUX        -0.1073
     15 C10         0.5910   -1.1933   -4.1767 C.3       1 RUX         0.0899
     16 H1         -0.0164   -0.5640   -4.8427 H         1 RUX         0.0714
     17 C11         2.0473   -0.6925   -4.2512 C.3       1 RUX        -0.0317
     18 C12         2.5875   -0.7686   -5.6183 C.1       1 RUX         0.2058
     19 N6          3.0135   -0.8272   -6.6960 N.1       1 RUX        -0.3655
     20 C13         0.0448   -0.9981   -2.7731 C.3       1 RUX        -0.0883
     21 C14         0.0775    0.4555   -2.3117 C.3       1 RUX        -0.0804
     22 C15        -0.8976    0.4947   -1.1390 C.3       1 RUX        -0.0798
     23 C16        -1.8642   -0.6718   -1.3506 C.3       1 RUX        -0.0798
     24 C17        -1.4354   -1.3452   -2.6501 C.3       1 RUX        -0.0804
     25 H2         -0.5580   -7.2230   -4.1869 H         1 RUX         0.1629
     26 H3         -1.6115   -9.6244   -4.9023 H         1 RUX         0.1716
     27 H4         -2.3758   -9.4195   -7.2798 H         1 RUX         0.4681
     28 H5         -1.8499   -5.3166   -9.7093 H         1 RUX         0.0533
     29 H6          1.1171   -5.6707   -4.2667 H         1 RUX         0.0549
     30 H7         -0.8958   -2.4250   -6.2767 H         1 RUX         0.1837
     31 H8          2.6761   -1.3095   -3.5971 H         1 RUX         0.0989
     32 H9          2.1304    0.3361   -3.8813 H         1 RUX         0.0989
     33 H10         0.6226   -1.6155   -2.0727 H         1 RUX         0.0657
     34 H11         1.0820    0.7780   -2.0204 H         1 RUX         0.0501
     35 H12        -0.2737    1.1259   -3.1059 H         1 RUX         0.0501
     36 H13        -0.3612    0.3663   -0.1917 H         1 RUX         0.0445
     37 H14        -1.4218    1.4545   -1.0903 H         1 RUX         0.0445
     38 H15        -1.7847   -1.3747   -0.5131 H         1 RUX         0.0445
     39 H16        -2.9047   -0.3354   -1.3994 H         1 RUX         0.0445
     40 H17        -1.6110   -2.4251   -2.6292 H         1 RUX         0.0501
     41 H18        -2.0066   -0.9279   -3.4886 H         1 RUX         0.0501
@<TRIPOS>BOND
     1    1    5 1
     2    1    2 2
     3    2    3 1
     4    3    4 1
     5    4    9 ar
     6    4    5 ar
     7    5    6 ar
     8    6    7 ar
     9    7    8 ar
    10    8    9 ar
    11    6   10 1
    12   10   14 2
    13   10   11 1
    14   11   12 2
    15   12   13 1
    16   13   14 1
    17   13   15 1
    18   15   16 1
    19   15   17 1
    20   17   18 1
    21   18   19 3
    22   15   20 1
    23   20   24 1
    24   20   21 1
    25   21   22 1
    26   22   23 1
    27   23   24 1
    28    1   25 1
    29    2   26 1
    30    3   27 1
    31    8   28 1
    32   11   29 1
    33   14   30 1
    34   17   31 1
    35   17   32 1
    36   20   33 1
    37   21   34 1
    38   21   35 1
    39   22   36 1
    40   22   37 1
    41   23   38 1
    42   23   39 1
    43   24   40 1
    44   24   41 1
