@<TRIPOS>MOLECULE
(3~{R})-3-cyclopentyl-3-[4-(7~{H}-pyrrolo[2,3-d]pyrimidin-4-yl)pyrazol-1-yl]propanenitrile
41   44    1
SMALL
USER_CHARGES


@<TRIPOS>ATOM
      1 C1         -0.9812   -7.4834   -5.1473 C.ar      1 RUX        -0.1578 
      2 C2         -1.5079   -8.7144   -5.4764 C.ar      1 RUX        -0.0014 
      3 N1         -1.9439   -8.6576   -6.7753 N.pl3     1 RUX        -0.6770 
      4 C3         -1.7031   -7.4089   -7.2839 C.ar      1 RUX         0.5696 
      5 C4         -1.1006   -6.6495   -6.2884 C.ar      1 RUX        -0.3119 
      6 C5         -0.7747   -5.3344   -6.6167 C.ar      1 RUX         0.5810 
      7 N2         -1.0517   -4.8681   -7.8564 N.ar      1 RUX        -0.7076 
      8 C6         -1.6410   -5.7209   -8.7246 C.ar      1 RUX         0.6410 
      9 N3         -2.0036   -7.0052   -8.5306 N.ar      1 RUX        -0.6988 
     10 C7         -0.1502   -4.4598   -5.6734 C.ar      1 RUX        -0.3314 
     11 C8          0.7260   -4.7205   -4.6028 C.ar      1 RUX         0.3423 
     12 N4          1.0895   -3.6120   -3.9523 N.2       1 RUX        -0.5214 
     13 N5          0.4386   -2.6415   -4.6160 N.pl3     1 RUX         0.0828 
     14 C9         -0.3181   -3.0967   -5.6555 C.ar      1 RUX        -0.1073 
     15 C10         0.5910   -1.1933   -4.1767 C.3       1 RUX         0.0899 
     16 H1         -0.0087   -0.5980   -4.8809 H         1 RUX         0.0715 
     17 C11         2.0473   -0.6925   -4.2512 C.3       1 RUX        -0.0316 
     18 C12         2.5875   -0.7686   -5.6183 C.1       1 RUX         0.2058 
     19 N6          3.0135   -0.8272   -6.6960 N.1       1 RUX        -0.3655 
     20 C13         0.0448   -0.9981   -2.7731 C.3       1 RUX        -0.0883 
     21 C14         0.0775    0.4555   -2.3117 C.3       1 RUX        -0.0804 
     22 C15        -0.8976    0.4947   -1.1390 C.3       1 RUX        -0.0798 
     23 C16        -1.8642   -0.6718   -1.3506 C.3       1 RUX        -0.0798 
     24 C17        -1.4354   -1.3452   -2.6501 C.3       1 RUX        -0.0804 
     25 H2         -0.5580   -7.2230   -4.1869 H         1 RUX         0.1629 
     26 H3         -1.6115   -9.6244   -4.9023 H         1 RUX         0.1716 
     27 H4         -2.4036   -9.5421   -7.2403 H         1 RUX         0.4681 
     28 H5         -1.8499   -5.3166   -9.7093 H         1 RUX         0.0533 
     29 H6          1.1171   -5.6707   -4.2667 H         1 RUX         0.0549 
     30 H7         -0.8958   -2.4250   -6.2767 H         1 RUX         0.1837 
     31 H8          2.0916    0.3563   -3.9224 H         1 RUX         0.0989 
     32 H9          2.6810   -1.3090   -3.5968 H         1 RUX         0.0989 
     33 H10         0.6966   -1.6571   -2.1807 H         1 RUX         0.0657 
     34 H11         1.1009    0.7208   -2.0079 H         1 RUX         0.0501 
     35 H12        -0.2412    1.1094   -3.1368 H         1 RUX         0.0501 
     36 H13        -0.3420    0.3828   -0.1963 H         1 RUX         0.0446 
     37 H14        -1.4315    1.4565   -1.1380 H         1 RUX         0.0446 
     38 H15        -1.7918   -1.3667   -0.5010 H         1 RUX         0.0446 
     39 H16        -2.8923   -0.2875   -1.4234 H         1 RUX         0.0446 
     40 H17        -1.9784   -0.9496   -3.5211 H         1 RUX         0.0501 
     41 H18        -1.5536   -2.4381   -2.6097 H         1 RUX         0.0501 
@<TRIPOS>BOND
     1    1    5 ar   
     2    1    2 ar   
     3    1   25 1    
     4    2    3 ar   
     5    2   26 1    
     6    3    4 ar   
     7    3   27 1    
     8    4    9 ar   
     9    4    5 ar   
    10    5    6 ar   
    11    6    7 ar   
    12    6   10 1    
    13    7    8 ar   
    14    8    9 ar   
    15    8   28 1    
    16   10   14 ar   
    17   10   11 ar   
    18   11   12 ar   
    19   11   29 1    
    20   12   13 ar   
    21   13   14 ar   
    22   13   15 1    
    23   14   30 1    
    24   15   16 1    
    25   15   17 1    
    26   15   20 1    
    27   17   18 1    
    28   17   31 1    
    29   17   32 1    
    30   18   19 3    
    31   20   24 1    
    32   20   21 1    
    33   20   33 1    
    34   21   22 1    
    35   21   34 1    
    36   21   35 1    
    37   22   23 1    
    38   22   36 1    
    39   22   37 1    
    40   23   24 1    
    41   23   38 1    
    42   23   39 1    
    43   24   40 1    
    44   24   41 1    
@<TRIPOS>SUBSTRUCTURE
     1 RUX         1 GROUP             0       ****    0 ROOT    
@<TRIPOS>MOLECULE
(3~{R})-3-cyclopentyl-3-[4-(7~{H}-pyrrolo[2,3-d]pyrimidin-4-yl)pyrazol-1-yl]propanenitrile
40   43    1
SMALL
USER_CHARGES


@<TRIPOS>ATOM
      1 C1         -0.9812   -7.4834   -5.1473 C.ar      1 RUX        -0.1578 
      2 C2         -1.5079   -8.7144   -5.4764 C.ar      1 RUX        -0.0014 
      3 N1         -1.9439   -8.6576   -6.7753 N.2       1 RUX        -0.6770 
      4 C3         -1.7031   -7.4089   -7.2839 C.ar      1 RUX         0.5696 
      5 C4         -1.1006   -6.6495   -6.2884 C.ar      1 RUX        -0.3119 
      6 C5         -0.7747   -5.3344   -6.6167 C.ar      1 RUX         0.5810 
      7 N2         -1.0517   -4.8681   -7.8564 N.ar      1 RUX        -0.7076 
      8 C6         -1.6410   -5.7209   -8.7246 C.ar      1 RUX         0.6410 
      9 N3         -2.0036   -7.0052   -8.5306 N.ar      1 RUX        -0.6988 
     10 C7         -0.1502   -4.4598   -5.6734 C.ar      1 RUX        -0.3314 
     11 C8          0.7260   -4.7205   -4.6028 C.ar      1 RUX         0.3423 
     12 N4          1.0895   -3.6120   -3.9523 N.2       1 RUX        -0.5214 
     13 N5          0.4386   -2.6415   -4.6160 N.pl3     1 RUX         0.0828 
     14 C9         -0.3181   -3.0967   -5.6555 C.ar      1 RUX        -0.1073 
     15 C10         0.5910   -1.1933   -4.1767 C.3       1 RUX         0.0899 
     16 H1         -0.0087   -0.5980   -4.8809 H         1 RUX         0.0715 
     17 C11         2.0473   -0.6925   -4.2512 C.3       1 RUX        -0.0316 
     18 C12         2.5875   -0.7686   -5.6183 C.1       1 RUX         0.2058 
     19 N6          3.0135   -0.8272   -6.6960 N.1       1 RUX        -0.3655 
     20 C13         0.0448   -0.9981   -2.7731 C.3       1 RUX        -0.0883 
     21 C14         0.0775    0.4555   -2.3117 C.3       1 RUX        -0.0804 
     22 C15        -0.8976    0.4947   -1.1390 C.3       1 RUX        -0.0798 
     23 C16        -1.8642   -0.6718   -1.3506 C.3       1 RUX        -0.0798 
     24 C17        -1.4354   -1.3452   -2.6501 C.3       1 RUX        -0.0804 
     25 H2         -0.5580   -7.2230   -4.1869 H         1 RUX         0.1629 
     26 H3         -1.6115   -9.6244   -4.9023 H         1 RUX         0.1716 
     27 H5         -1.8499   -5.3166   -9.7093 H         1 RUX         0.0533 
     28 H6          1.1171   -5.6707   -4.2667 H         1 RUX         0.0549 
     29 H7         -0.8958   -2.4250   -6.2767 H         1 RUX         0.1837 
     30 H8          2.0916    0.3563   -3.9224 H         1 RUX         0.0989 
     31 H9          2.6810   -1.3090   -3.5968 H         1 RUX         0.0989 
     32 H10         0.6966   -1.6571   -2.1807 H         1 RUX         0.0657 
     33 H11         1.1009    0.7208   -2.0079 H         1 RUX         0.0501 
     34 H12        -0.2412    1.1094   -3.1368 H         1 RUX         0.0501 
     35 H13        -0.3420    0.3828   -0.1963 H         1 RUX         0.0446 
     36 H14        -1.4315    1.4565   -1.1380 H         1 RUX         0.0446 
     37 H15        -1.7918   -1.3667   -0.5010 H         1 RUX         0.0446 
     38 H16        -2.8923   -0.2875   -1.4234 H         1 RUX         0.0446 
     39 H17        -1.9784   -0.9496   -3.5211 H         1 RUX         0.0501 
     40 H18        -1.5536   -2.4381   -2.6097 H         1 RUX         0.0501 
@<TRIPOS>BOND
     1    1    5 ar   
     2    1    2 ar   
     3    1   25 1    
     4    2    3 ar   
     5    2   26 1    
     6    3    4 ar   
     7    4    9 ar   
     8    4    5 ar   
     9    5    6 ar   
    10    6    7 ar   
    11    6   10 1    
    12    7    8 ar   
    13    8    9 ar   
    14    8   27 1    
    15   10   14 ar   
    16   10   11 ar   
    17   11   12 ar   
    18   11   28 1    
    19   12   13 ar   
    20   13   14 ar   
    21   13   15 1    
    22   14   29 1    
    23   15   16 1    
    24   15   17 1    
    25   15   20 1    
    26   17   18 1    
    27   17   30 1    
    28   17   31 1    
    29   18   19 3    
    30   20   24 1    
    31   20   21 1    
    32   20   32 1    
    33   21   22 1    
    34   21   33 1    
    35   21   34 1    
    36   22   23 1    
    37   22   35 1    
    38   22   36 1    
    39   23   24 1    
    40   23   37 1    
    41   23   38 1    
    42   24   39 1    
    43   24   40 1    
@<TRIPOS>SUBSTRUCTURE
     1 RUX         1 GROUP             0       ****    0 ROOT    
