~{N}-[3-[5-(4-chlorophenyl)-1~{H}-pyrrolo[2,3-b]pyridine-3-carbonyl]-2,4-difluoro-phenyl]propane-1-sulfonamide
                    3D
 Structure written by MMmdl.
 50 53  0  0  1  0            999 V2000
    3.5300    3.5679   -8.2709 C   0  0  0  0  0  0
    2.3274    4.4848   -8.1227 C   0  0  0  0  0  0
    1.1564    3.7654   -7.4740 C   0  0  0  0  0  0
   -0.2498    4.8412   -7.3019 S   0  0  0  0  0  0
   -0.6151    5.2735   -8.6380 O   0  0  0  0  0  0
    0.0572    5.8130   -6.2712 O   0  0  0  0  0  0
   -1.4308    3.7172   -6.7633 N   0  5  0  0  0  0
   -1.5653    3.5129   -5.3566 C   0  0  0  0  0  0
   -1.9014    4.5835   -4.5281 C   0  0  0  0  0  0
   -2.0329    4.3871   -3.1534 C   0  0  0  0  0  0
   -1.8282    3.1201   -2.6072 C   0  0  0  0  0  0
   -1.4920    2.0494   -3.4357 C   0  0  0  0  0  0
   -1.3605    2.2459   -4.8104 C   0  0  0  0  0  0
   -1.0375    1.2164   -5.6080 F   0  0  0  0  0  0
   -1.2749    0.7048   -2.8559 C   0  0  0  0  0  0
   -2.1903    0.1600   -2.2469 O   0  0  0  0  0  0
   -0.0190    0.0234   -2.9889 C   0  0  0  0  0  0
    0.1180   -1.3473   -3.0343 C   0  0  0  0  0  0
    1.4516   -1.6373   -3.1631 N   0  0  0  0  0  0
    2.1733   -0.4734   -3.2018 C   0  0  0  0  0  0
    1.2796    0.5882   -3.0946 C   0  0  0  0  0  0
    1.8136    1.8868   -3.1126 C   0  0  0  0  0  0
    3.1954    2.0205   -3.2361 C   0  0  0  0  0  0
    3.9712    0.8733   -3.3346 C   0  0  0  0  0  0
    3.5123   -0.3998   -3.3227 N   0  0  0  0  0  0
    3.8084    3.3287   -3.2604 C   0  0  0  0  0  0
    5.1020    3.5019   -2.7680 C   0  0  0  0  0  0
    5.6939    4.7647   -2.7914 C   0  0  0  0  0  0
    4.9923    5.8544   -3.3072 C   0  0  0  0  0  0
    3.6987    5.6811   -3.7994 C   0  0  0  0  0  0
    3.1068    4.4183   -3.7760 C   0  0  0  0  0  0
    5.7224    7.4125   -3.3360 Cl  0  0  0  0  0  0
   -1.9574    2.9442   -1.2845 F   0  0  0  0  0  0
    4.3562    4.1201   -8.7426 H   0  0  0  0  0  0
    3.2591    2.7064   -8.8990 H   0  0  0  0  0  0
    3.8453    3.2134   -7.2785 H   0  0  0  0  0  0
    2.5983    5.3463   -7.4946 H   0  0  0  0  0  0
    2.0121    4.8393   -9.1151 H   0  0  0  0  0  0
    0.8647    2.9056   -8.0951 H   0  0  0  0  0  0
    1.4509    3.4126   -6.4746 H   0  0  0  0  0  0
   -2.0632    5.5747   -4.9438 H   0  0  0  0  0  0
   -2.2946    5.2205   -2.5081 H   0  0  0  0  0  0
   -0.6114   -2.1442   -2.9869 H   0  0  0  0  0  0
    1.7839   -2.6845   -3.2181 H   0  0  0  0  0  0
    1.1657    2.7548   -3.0323 H   0  0  0  0  0  0
    5.0527    0.9440   -3.4335 H   0  0  0  0  0  0
    5.6617    2.6622   -2.3627 H   0  0  0  0  0  0
    6.7027    4.8850   -2.4045 H   0  0  0  0  0  0
    3.1402    6.5214   -4.2042 H   0  0  0  0  0  0
    2.0977    4.2993   -4.1633 H   0  0  0  0  0  0
  1  2  1  0  0  0
  1 34  1  0  0  0
  1 35  1  0  0  0
  1 36  1  0  0  0
  2  3  1  0  0  0
  2 37  1  0  0  0
  2 38  1  0  0  0
  3  4  1  0  0  0
  3 39  1  0  0  0
  3 40  1  0  0  0
  4  5  2  0  0  0
  4  6  2  0  0  0
  4  7  1  0  0  0
  7  8  1  0  0  0
  8 13  2  0  0  0
  8  9  1  0  0  0
  9 10  2  0  0  0
  9 41  1  0  0  0
 10 11  1  0  0  0
 10 42  1  0  0  0
 11 12  2  0  0  0
 11 33  1  0  0  0
 12 13  1  0  0  0
 12 15  1  0  0  0
 13 14  1  0  0  0
 15 16  2  0  0  0
 15 17  1  0  0  0
 17 21  1  0  0  0
 17 18  2  0  0  0
 18 19  1  0  0  0
 18 43  1  0  0  0
 19 20  1  0  0  0
 19 44  1  0  0  0
 20 25  2  0  0  0
 20 21  1  0  0  0
 21 22  2  0  0  0
 22 23  1  0  0  0
 22 45  1  0  0  0
 23 24  2  0  0  0
 23 26  1  0  0  0
 24 25  1  0  0  0
 24 46  1  0  0  0
 26 31  2  0  0  0
 26 27  1  0  0  0
 27 28  2  0  0  0
 27 47  1  0  0  0
 28 29  1  0  0  0
 28 48  1  0  0  0
 29 30  2  0  0  0
 29 32  1  0  0  0
 30 31  1  0  0  0
 30 49  1  0  0  0
 31 50  1  0  0  0
M  CHG  1   7  -1
M  END
> <s_m_source_file>
/Users/choderaj/github/choderalab/mcce-charges/mcce-charges.jchodera/epik_inhibitors/output/Vemurafenib/Vemurafenib-input.mol2

> <i_m_source_file_index>
1

> <r_epik_Ionization_Penalty>
  0.2209

> <r_epik_Ionization_Penalty_Charging>
  0.2207

> <r_epik_Ionization_Penalty_Neutral>
  0.0002

> <r_epik_State_Penalty>
  0.2111

> <i_epik_Tot_Q>
-1

$$$$
~{N}-[3-[5-(4-chlorophenyl)-1~{H}-pyrrolo[2,3-b]pyridine-3-carbonyl]-2,4-difluoro-phenyl]propane-1-sulfonamide
                    3D
 Structure written by MMmdl.
 51 54  0  0  1  0            999 V2000
    3.5300    3.5679   -8.2709 C   0  0  0  0  0  0
    2.3274    4.4848   -8.1227 C   0  0  0  0  0  0
    1.1564    3.7654   -7.4740 C   0  0  0  0  0  0
   -0.2498    4.8412   -7.3019 S   0  0  0  0  0  0
   -0.6151    5.2735   -8.6380 O   0  0  0  0  0  0
    0.0572    5.8130   -6.2712 O   0  0  0  0  0  0
   -1.4308    3.7172   -6.7633 N   0  0  0  0  0  0
   -1.5653    3.5129   -5.3566 C   0  0  0  0  0  0
   -1.9014    4.5835   -4.5281 C   0  0  0  0  0  0
   -2.0329    4.3871   -3.1534 C   0  0  0  0  0  0
   -1.8282    3.1201   -2.6072 C   0  0  0  0  0  0
   -1.4920    2.0494   -3.4357 C   0  0  0  0  0  0
   -1.3605    2.2459   -4.8104 C   0  0  0  0  0  0
   -1.0375    1.2164   -5.6080 F   0  0  0  0  0  0
   -1.2749    0.7048   -2.8559 C   0  0  0  0  0  0
   -2.1903    0.1600   -2.2469 O   0  0  0  0  0  0
   -0.0190    0.0234   -2.9889 C   0  0  0  0  0  0
    0.1180   -1.3473   -3.0343 C   0  0  0  0  0  0
    1.4516   -1.6373   -3.1631 N   0  0  0  0  0  0
    2.1733   -0.4734   -3.2018 C   0  0  0  0  0  0
    1.2796    0.5882   -3.0946 C   0  0  0  0  0  0
    1.8136    1.8868   -3.1126 C   0  0  0  0  0  0
    3.1954    2.0205   -3.2361 C   0  0  0  0  0  0
    3.9712    0.8733   -3.3346 C   0  0  0  0  0  0
    3.5123   -0.3998   -3.3227 N   0  0  0  0  0  0
    3.8084    3.3287   -3.2604 C   0  0  0  0  0  0
    5.1020    3.5019   -2.7680 C   0  0  0  0  0  0
    5.6939    4.7647   -2.7914 C   0  0  0  0  0  0
    4.9923    5.8544   -3.3072 C   0  0  0  0  0  0
    3.6987    5.6811   -3.7994 C   0  0  0  0  0  0
    3.1068    4.4183   -3.7760 C   0  0  0  0  0  0
    5.7224    7.4125   -3.3360 Cl  0  0  0  0  0  0
   -1.9574    2.9442   -1.2845 F   0  0  0  0  0  0
    4.3562    4.1201   -8.7426 H   0  0  0  0  0  0
    3.2591    2.7064   -8.8990 H   0  0  0  0  0  0
    3.8453    3.2134   -7.2785 H   0  0  0  0  0  0
    2.5983    5.3463   -7.4946 H   0  0  0  0  0  0
    2.0121    4.8393   -9.1151 H   0  0  0  0  0  0
    0.8647    2.9056   -8.0951 H   0  0  0  0  0  0
    1.4509    3.4126   -6.4746 H   0  0  0  0  0  0
   -2.0541    3.1816   -7.4945 H   0  0  0  0  0  0
   -2.0632    5.5747   -4.9438 H   0  0  0  0  0  0
   -2.2946    5.2205   -2.5081 H   0  0  0  0  0  0
   -0.6114   -2.1442   -2.9869 H   0  0  0  0  0  0
    1.7839   -2.6845   -3.2181 H   0  0  0  0  0  0
    1.1657    2.7548   -3.0323 H   0  0  0  0  0  0
    5.0527    0.9440   -3.4335 H   0  0  0  0  0  0
    5.6617    2.6622   -2.3627 H   0  0  0  0  0  0
    6.7027    4.8850   -2.4045 H   0  0  0  0  0  0
    3.1402    6.5214   -4.2042 H   0  0  0  0  0  0
    2.0977    4.2993   -4.1633 H   0  0  0  0  0  0
  1  2  1  0  0  0
  1 34  1  0  0  0
  1 35  1  0  0  0
  1 36  1  0  0  0
  2  3  1  0  0  0
  2 37  1  0  0  0
  2 38  1  0  0  0
  3  4  1  0  0  0
  3 39  1  0  0  0
  3 40  1  0  0  0
  4  5  2  0  0  0
  4  6  2  0  0  0
  4  7  1  0  0  0
  7  8  1  0  0  0
  7 41  1  0  0  0
  8 13  2  0  0  0
  8  9  1  0  0  0
  9 10  2  0  0  0
  9 42  1  0  0  0
 10 11  1  0  0  0
 10 43  1  0  0  0
 11 12  2  0  0  0
 11 33  1  0  0  0
 12 13  1  0  0  0
 12 15  1  0  0  0
 13 14  1  0  0  0
 15 16  2  0  0  0
 15 17  1  0  0  0
 17 21  1  0  0  0
 17 18  2  0  0  0
 18 19  1  0  0  0
 18 44  1  0  0  0
 19 20  1  0  0  0
 19 45  1  0  0  0
 20 25  2  0  0  0
 20 21  1  0  0  0
 21 22  2  0  0  0
 22 23  1  0  0  0
 22 46  1  0  0  0
 23 24  2  0  0  0
 23 26  1  0  0  0
 24 25  1  0  0  0
 24 47  1  0  0  0
 26 31  2  0  0  0
 26 27  1  0  0  0
 27 28  2  0  0  0
 27 48  1  0  0  0
 28 29  1  0  0  0
 28 49  1  0  0  0
 29 30  2  0  0  0
 29 32  1  0  0  0
 30 31  1  0  0  0
 30 50  1  0  0  0
 31 51  1  0  0  0
M  END
> <s_m_source_file>
/Users/choderaj/github/choderalab/mcce-charges/mcce-charges.jchodera/epik_inhibitors/output/Vemurafenib/Vemurafenib-input.mol2

> <i_m_source_file_index>
1

> <r_epik_Ionization_Penalty>
  0.6922

> <r_epik_Ionization_Penalty_Charging>
  0.0000

> <r_epik_Ionization_Penalty_Neutral>
  0.6922

> <r_epik_State_Penalty>
  0.7141

> <i_epik_Tot_Q>
0

$$$$
~{N}-[3-[5-(4-chlorophenyl)-1~{H}-pyrrolo[2,3-b]pyridine-3-carbonyl]-2,4-difluoro-phenyl]propane-1-sulfonamide
                    3D
 Structure written by MMmdl.
 49 52  0  0  1  0            999 V2000
    3.5300    3.5679   -8.2709 C   0  0  0  0  0  0
    2.3274    4.4848   -8.1227 C   0  0  0  0  0  0
    1.1564    3.7654   -7.4740 C   0  0  0  0  0  0
   -0.2498    4.8412   -7.3019 S   0  0  0  0  0  0
   -0.6151    5.2735   -8.6380 O   0  0  0  0  0  0
    0.0572    5.8130   -6.2712 O   0  0  0  0  0  0
   -1.4308    3.7172   -6.7633 N   0  5  0  0  0  0
   -1.5653    3.5129   -5.3566 C   0  0  0  0  0  0
   -1.9014    4.5835   -4.5281 C   0  0  0  0  0  0
   -2.0329    4.3871   -3.1534 C   0  0  0  0  0  0
   -1.8282    3.1201   -2.6072 C   0  0  0  0  0  0
   -1.4920    2.0494   -3.4357 C   0  0  0  0  0  0
   -1.3605    2.2459   -4.8104 C   0  0  0  0  0  0
   -1.0375    1.2164   -5.6080 F   0  0  0  0  0  0
   -1.2749    0.7048   -2.8559 C   0  0  0  0  0  0
   -2.1903    0.1600   -2.2469 O   0  0  0  0  0  0
   -0.0190    0.0234   -2.9889 C   0  0  0  0  0  0
    0.1180   -1.3473   -3.0343 C   0  0  0  0  0  0
    1.4516   -1.6373   -3.1631 N   0  5  0  0  0  0
    2.1733   -0.4734   -3.2018 C   0  0  0  0  0  0
    1.2796    0.5882   -3.0946 C   0  0  0  0  0  0
    1.8136    1.8868   -3.1126 C   0  0  0  0  0  0
    3.1954    2.0205   -3.2361 C   0  0  0  0  0  0
    3.9712    0.8733   -3.3346 C   0  0  0  0  0  0
    3.5123   -0.3998   -3.3227 N   0  0  0  0  0  0
    3.8084    3.3287   -3.2604 C   0  0  0  0  0  0
    5.1020    3.5019   -2.7680 C   0  0  0  0  0  0
    5.6939    4.7647   -2.7914 C   0  0  0  0  0  0
    4.9923    5.8544   -3.3072 C   0  0  0  0  0  0
    3.6987    5.6811   -3.7994 C   0  0  0  0  0  0
    3.1068    4.4183   -3.7760 C   0  0  0  0  0  0
    5.7224    7.4125   -3.3360 Cl  0  0  0  0  0  0
   -1.9574    2.9442   -1.2845 F   0  0  0  0  0  0
    4.3562    4.1201   -8.7426 H   0  0  0  0  0  0
    3.2591    2.7064   -8.8990 H   0  0  0  0  0  0
    3.8453    3.2134   -7.2785 H   0  0  0  0  0  0
    2.5983    5.3463   -7.4946 H   0  0  0  0  0  0
    2.0121    4.8393   -9.1151 H   0  0  0  0  0  0
    0.8647    2.9056   -8.0951 H   0  0  0  0  0  0
    1.4509    3.4126   -6.4746 H   0  0  0  0  0  0
   -2.0632    5.5747   -4.9438 H   0  0  0  0  0  0
   -2.2946    5.2205   -2.5081 H   0  0  0  0  0  0
   -0.6114   -2.1442   -2.9869 H   0  0  0  0  0  0
    1.1657    2.7548   -3.0323 H   0  0  0  0  0  0
    5.0527    0.9440   -3.4335 H   0  0  0  0  0  0
    5.6617    2.6622   -2.3627 H   0  0  0  0  0  0
    6.7027    4.8850   -2.4045 H   0  0  0  0  0  0
    3.1402    6.5214   -4.2042 H   0  0  0  0  0  0
    2.0977    4.2993   -4.1633 H   0  0  0  0  0  0
  1  2  1  0  0  0
  1 34  1  0  0  0
  1 35  1  0  0  0
  1 36  1  0  0  0
  2  3  1  0  0  0
  2 37  1  0  0  0
  2 38  1  0  0  0
  3  4  1  0  0  0
  3 39  1  0  0  0
  3 40  1  0  0  0
  4  5  2  0  0  0
  4  6  2  0  0  0
  4  7  1  0  0  0
  7  8  1  0  0  0
  8 13  2  0  0  0
  8  9  1  0  0  0
  9 10  2  0  0  0
  9 41  1  0  0  0
 10 11  1  0  0  0
 10 42  1  0  0  0
 11 12  2  0  0  0
 11 33  1  0  0  0
 12 13  1  0  0  0
 12 15  1  0  0  0
 13 14  1  0  0  0
 15 16  2  0  0  0
 15 17  1  0  0  0
 17 21  1  0  0  0
 17 18  2  0  0  0
 18 19  1  0  0  0
 18 43  1  0  0  0
 19 20  1  0  0  0
 20 25  2  0  0  0
 20 21  1  0  0  0
 21 22  2  0  0  0
 22 23  1  0  0  0
 22 44  1  0  0  0
 23 24  2  0  0  0
 23 26  1  0  0  0
 24 25  1  0  0  0
 24 45  1  0  0  0
 26 31  2  0  0  0
 26 27  1  0  0  0
 27 28  2  0  0  0
 27 46  1  0  0  0
 28 29  1  0  0  0
 28 47  1  0  0  0
 29 30  2  0  0  0
 29 32  1  0  0  0
 30 31  1  0  0  0
 30 48  1  0  0  0
 31 49  1  0  0  0
M  CHG  2   7  -1  19  -1
M  END
> <s_m_source_file>
/Users/choderaj/github/choderalab/mcce-charges/mcce-charges.jchodera/epik_inhibitors/output/Vemurafenib/Vemurafenib-input.mol2

> <i_m_source_file_index>
1

> <r_epik_Ionization_Penalty>
  5.4743

> <r_epik_Ionization_Penalty_Charging>
  5.4743

> <r_epik_Ionization_Penalty_Neutral>
  0.0000

> <r_epik_State_Penalty>
  5.8170

> <i_epik_Tot_Q>
-2

$$$$
~{N}-[3-[5-(4-chlorophenyl)-1~{H}-pyrrolo[2,3-b]pyridine-3-carbonyl]-2,4-difluoro-phenyl]propane-1-sulfonamide
                    3D
 Structure written by MMmdl.
 51 54  0  0  1  0            999 V2000
    3.5300    3.5679   -8.2709 C   0  0  0  0  0  0
    2.3274    4.4848   -8.1227 C   0  0  0  0  0  0
    1.1564    3.7654   -7.4740 C   0  0  0  0  0  0
   -0.2498    4.8412   -7.3019 S   0  0  0  0  0  0
   -0.6151    5.2735   -8.6380 O   0  0  0  0  0  0
    0.0572    5.8130   -6.2712 O   0  0  0  0  0  0
   -1.4308    3.7172   -6.7633 N   0  5  0  0  0  0
   -1.5653    3.5129   -5.3566 C   0  0  0  0  0  0
   -1.9014    4.5835   -4.5281 C   0  0  0  0  0  0
   -2.0329    4.3871   -3.1534 C   0  0  0  0  0  0
   -1.8282    3.1201   -2.6072 C   0  0  0  0  0  0
   -1.4920    2.0494   -3.4357 C   0  0  0  0  0  0
   -1.3605    2.2459   -4.8104 C   0  0  0  0  0  0
   -1.0375    1.2164   -5.6080 F   0  0  0  0  0  0
   -1.2749    0.7048   -2.8559 C   0  0  0  0  0  0
   -2.1903    0.1600   -2.2469 O   0  0  0  0  0  0
   -0.0190    0.0234   -2.9889 C   0  0  0  0  0  0
    0.1180   -1.3473   -3.0343 C   0  0  0  0  0  0
    1.4516   -1.6373   -3.1631 N   0  0  0  0  0  0
    2.1733   -0.4734   -3.2018 C   0  0  0  0  0  0
    1.2796    0.5882   -3.0946 C   0  0  0  0  0  0
    1.8136    1.8868   -3.1126 C   0  0  0  0  0  0
    3.1954    2.0205   -3.2361 C   0  0  0  0  0  0
    3.9712    0.8733   -3.3346 C   0  0  0  0  0  0
    3.5123   -0.3998   -3.3227 N   0  3  0  0  0  0
    3.8084    3.3287   -3.2604 C   0  0  0  0  0  0
    5.1020    3.5019   -2.7680 C   0  0  0  0  0  0
    5.6939    4.7647   -2.7914 C   0  0  0  0  0  0
    4.9923    5.8544   -3.3072 C   0  0  0  0  0  0
    3.6987    5.6811   -3.7994 C   0  0  0  0  0  0
    3.1068    4.4183   -3.7760 C   0  0  0  0  0  0
    5.7224    7.4125   -3.3360 Cl  0  0  0  0  0  0
   -1.9574    2.9442   -1.2845 F   0  0  0  0  0  0
    4.3562    4.1201   -8.7426 H   0  0  0  0  0  0
    3.2591    2.7064   -8.8990 H   0  0  0  0  0  0
    3.8453    3.2134   -7.2785 H   0  0  0  0  0  0
    2.5983    5.3463   -7.4946 H   0  0  0  0  0  0
    2.0121    4.8393   -9.1151 H   0  0  0  0  0  0
    0.8647    2.9056   -8.0951 H   0  0  0  0  0  0
    1.4509    3.4126   -6.4746 H   0  0  0  0  0  0
   -2.0632    5.5747   -4.9438 H   0  0  0  0  0  0
   -2.2946    5.2205   -2.5081 H   0  0  0  0  0  0
   -0.6114   -2.1442   -2.9869 H   0  0  0  0  0  0
    1.7839   -2.6845   -3.2181 H   0  0  0  0  0  0
    1.1657    2.7548   -3.0323 H   0  0  0  0  0  0
    5.0527    0.9440   -3.4335 H   0  0  0  0  0  0
    5.6617    2.6622   -2.3627 H   0  0  0  0  0  0
    6.7027    4.8850   -2.4045 H   0  0  0  0  0  0
    3.1402    6.5214   -4.2042 H   0  0  0  0  0  0
    2.0977    4.2993   -4.1633 H   0  0  0  0  0  0
    4.1091   -1.3207   -3.3992 H   0  0  0  0  0  0
  1  2  1  0  0  0
  1 34  1  0  0  0
  1 35  1  0  0  0
  1 36  1  0  0  0
  2  3  1  0  0  0
  2 37  1  0  0  0
  2 38  1  0  0  0
  3  4  1  0  0  0
  3 39  1  0  0  0
  3 40  1  0  0  0
  4  5  2  0  0  0
  4  6  2  0  0  0
  4  7  1  0  0  0
  7  8  1  0  0  0
  8 13  2  0  0  0
  8  9  1  0  0  0
  9 10  2  0  0  0
  9 41  1  0  0  0
 10 11  1  0  0  0
 10 42  1  0  0  0
 11 12  2  0  0  0
 11 33  1  0  0  0
 12 13  1  0  0  0
 12 15  1  0  0  0
 13 14  1  0  0  0
 15 16  2  0  0  0
 15 17  1  0  0  0
 17 21  1  0  0  0
 17 18  2  0  0  0
 18 19  1  0  0  0
 18 43  1  0  0  0
 19 20  1  0  0  0
 19 44  1  0  0  0
 20 25  2  0  0  0
 20 21  1  0  0  0
 21 22  2  0  0  0
 22 23  1  0  0  0
 22 45  1  0  0  0
 23 24  2  0  0  0
 23 26  1  0  0  0
 24 25  1  0  0  0
 24 46  1  0  0  0
 25 51  1  0  0  0
 26 31  2  0  0  0
 26 27  1  0  0  0
 27 28  2  0  0  0
 27 47  1  0  0  0
 28 29  1  0  0  0
 28 48  1  0  0  0
 29 30  2  0  0  0
 29 32  1  0  0  0
 30 31  1  0  0  0
 30 49  1  0  0  0
 31 50  1  0  0  0
M  CHG  2   7  -1  25   1
M  END
> <s_m_source_file>
/Users/choderaj/github/choderalab/mcce-charges/mcce-charges.jchodera/epik_inhibitors/output/Vemurafenib/Vemurafenib-input.mol2

> <i_m_source_file_index>
1

> <r_epik_Ionization_Penalty>
  5.5552

> <r_epik_Ionization_Penalty_Charging>
  5.5473

> <r_epik_Ionization_Penalty_Neutral>
  0.0079

> <r_epik_State_Penalty>
  5.8949

> <i_epik_Tot_Q>
0

$$$$
