@<TRIPOS>MOLECULE
[3-[5-(4-chlorophenyl)-1~{H}-pyrrolo[2,3-b]pyridine-3-carbonyl]-2,4-difluoro-phenyl]-propylsulfonyl-azanide
   50    53     1     0     0
SMALL
USER_CHARGES

@<TRIPOS>ATOM
      1 C10         9.4540   -4.1760  -21.7350 C.ar      1 032         0.0082
      2 C15         1.9340   -1.2310  -18.3570 C.ar      1 032         0.0797
      3 C17         1.5160   -2.3160  -20.5970 C.2       1 032         0.6284
      4 C20        -0.8450   -3.0530  -20.4180 C.ar      1 032         0.0886
      5 C21        -2.2070   -2.7780  -20.3740 C.ar      1 032         0.3474
      6 C22        -2.6580   -1.4610  -20.4690 C.ar      1 032        -0.2591
      7 C24        -0.3870   -0.7200  -20.6490 C.ar      1 032         0.0265
      8 C01         6.1300   -2.5620  -19.5770 C.ar      1 032        -0.1951
      9 C02         6.3090   -1.9530  -18.3330 C.ar      1 032         0.4170
     10 N03         5.3540   -1.3930  -17.5580 N.ar      1 032        -0.6768
     11 C04         4.8250   -2.6070  -20.0890 C.ar      1 032        -0.0223
     12 N14         2.9990   -0.9880  -17.5350 N.pl3     1 032        -0.6822
     13 C16         2.3650   -1.8860  -19.4910 C.ar      1 032        -0.1912
     14 C05         3.7810   -2.0440  -19.3350 C.ar      1 032        -0.1561
     15 C06         4.1330   -1.4740  -18.1140 C.ar      1 032         0.5421
     16 C07         7.2690   -3.1240  -20.3170 C.ar      1 032        -0.0066
     17 C18         0.0730   -2.0290  -20.5490 C.ar      1 032        -0.1915
     18 C23        -1.7420   -0.4200  -20.6080 C.ar      1 032        -0.1136
     19 F25         0.4770    0.2870  -20.7820 F         1 032        -0.1630
     20 F26        -0.4260   -4.3170  -20.3250 F         1 032        -0.1322
     21 N27        -3.1160   -3.8770  -20.2300 N.2       1 032        -0.8410
     22 S28        -4.8030   -3.5710  -20.1630 S.o2      1 032         1.4996
     23 O29        -5.5100   -4.8280  -20.0310 O.2       1 032        -0.7155
     24 O30        -5.2060   -2.5980  -21.1570 O.2       1 032        -0.7155
     25 C31        -4.9970   -2.7740  -18.5710 C.3       1 032        -0.2878
     26 C32        -5.0160   -3.7200  -17.3780 C.3       1 032        -0.0497
     27 C33        -4.2770   -3.0960  -16.2050 C.3       1 032        -0.0835
     28 C08         7.1460   -4.3190  -21.0470 C.ar      1 032        -0.1177
     29 C09         8.2320   -4.8460  -21.7510 C.ar      1 032        -0.1229
     30 C11         9.6030   -2.9860  -21.0240 C.ar      1 032        -0.1229
     31 C12         8.5140   -2.4650  -20.3230 C.ar      1 032        -0.1177
     32 CL13       10.7950   -4.8200  -22.6010 Cl        1 032        -0.1117
     33 H15         0.9110   -0.9520  -18.1500 H         1 032         0.1855
     34 H22        -3.7160   -1.2490  -20.4350 H         1 032         0.1336
     35 H02         7.3180   -1.9270  -17.9490 H         1 032         0.0162
     36 H04         4.6260   -3.0660  -21.0460 H         1 032         0.1672
     37 H23        -2.0800    0.6030  -20.6830 H         1 032         0.1256
     38 H31        -4.1634   -2.0753  -18.4067 H         1 032         0.0728
     39 H31A       -5.9479   -2.2214  -18.5510 H         1 032         0.0728
     40 H32        -6.0572   -3.9188  -17.0843 H         1 032         0.0516
     41 H32A       -4.5254   -4.6656  -17.6520 H         1 032         0.0516
     42 H33        -4.2969   -3.7872  -15.3495 H         1 032         0.0202
     43 H33A       -4.7657   -2.1513  -15.9245 H         1 032         0.0202
     44 H33B       -3.2338   -2.8981  -16.4923 H         1 032         0.0202
     45 H08         6.1990   -4.8370  -21.0640 H         1 032         0.1439
     46 H09         8.1250   -5.7670  -22.3040 H         1 032         0.1445
     47 H11        10.5530   -2.4720  -21.0160 H         1 032         0.1445
     48 H12         8.6280   -1.5410  -19.7760 H         1 032         0.1439
     49 O19         1.8630   -3.2730  -21.2700 O.2       1 032        -0.5385
     50 H18         2.8468   -0.4714  -16.5759 H         1 032         0.4627
@<TRIPOS>BOND
     1    1   29 ar
     2    1   30 ar
     3    1   32 1
     4    2   12 ar
     5    2   13 ar
     6    2   33 1
     7    3   13 1
     8    3   17 1
     9    3   49 2
    10    4    5 ar
    11    4   17 ar
    12    4   20 1
    13    5    6 ar
    14    5   21 1
    15    6   18 ar
    16    6   34 1
    17    7   17 ar
    18    7   18 ar
    19    7   19 1
    20    8    9 ar
    21    8   11 ar
    22    8   16 1
    23    9   10 ar
    24    9   35 1
    25   10   15 ar
    26   11   14 ar
    27   11   36 1
    28   12   15 ar
    29   12   50 1
    30   13   14 ar
    31   14   15 ar
    32   16   28 ar
    33   16   31 ar
    34   18   37 1
    35   21   22 1
    36   22   23 2
    37   22   24 2
    38   22   25 1
    39   25   26 1
    40   25   38 1
    41   25   39 1
    42   26   27 1
    43   26   40 1
    44   26   41 1
    45   27   42 1
    46   27   43 1
    47   27   44 1
    48   28   29 ar
    49   28   45 1
    50   29   46 1
    51   30   31 ar
    52   30   47 1
    53   31   48 1
@<TRIPOS>SUBSTRUCTURE
     1 032         1 GROUP   0 A     ****
@<TRIPOS>MOLECULE
~{N}-[3-[5-(4-chlorophenyl)-1~{H}-pyrrolo[2,3-b]pyridine-3-carbonyl]-2,4-difluoro-phenyl]propane-1-sulfonamide
   51    54     1     0     0
SMALL
USER_CHARGES

@<TRIPOS>ATOM
      1 C10         9.4540   -4.1760  -21.7350 C.ar      1 032         0.0194
      2 C15         1.9340   -1.2310  -18.3570 C.ar      1 032         0.0860
      3 C17         1.5160   -2.3160  -20.5970 C.2       1 032         0.6279
      4 C20        -0.8450   -3.0530  -20.4180 C.ar      1 032         0.1496
      5 C21        -2.2070   -2.7780  -20.3740 C.ar      1 032         0.1071
      6 C22        -2.6580   -1.4610  -20.4690 C.ar      1 032        -0.1339
      7 C24        -0.3870   -0.7200  -20.6490 C.ar      1 032         0.1459
      8 C01         6.1300   -2.5620  -19.5770 C.ar      1 032        -0.1687
      9 C02         6.3090   -1.9530  -18.3330 C.ar      1 032         0.4231
     10 N03         5.3540   -1.3930  -17.5580 N.ar      1 032        -0.6612
     11 C04         4.8250   -2.6070  -20.0890 C.ar      1 032        -0.0332
     12 N14         2.9990   -0.9880  -17.5350 N.pl3     1 032        -0.6637
     13 C16         2.3650   -1.8860  -19.4910 C.ar      1 032        -0.2253
     14 C05         3.7810   -2.0440  -19.3350 C.ar      1 032        -0.1537
     15 C06         4.1330   -1.4740  -18.1140 C.ar      1 032         0.5387
     16 C07         7.2690   -3.1240  -20.3170 C.ar      1 032        -0.0283
     17 C18         0.0730   -2.0290  -20.5490 C.ar      1 032        -0.2023
     18 C23        -1.7420   -0.4200  -20.6080 C.ar      1 032        -0.1558
     19 F25         0.4770    0.2870  -20.7820 F         1 032        -0.1253
     20 F26        -0.4260   -4.3170  -20.3250 F         1 032        -0.1186
     21 N27        -3.1160   -3.8770  -20.2300 N.pl3     1 032        -0.7677
     22 S28        -4.8030   -3.5710  -20.1630 S.o2      1 032         1.4603
     23 O29        -5.5100   -4.8280  -20.0310 O.2       1 032        -0.6428
     24 O30        -5.2060   -2.5980  -21.1570 O.2       1 032        -0.6428
     25 C31        -4.9970   -2.7740  -18.5710 C.3       1 032        -0.3348
     26 C32        -5.0160   -3.7200  -17.3780 C.3       1 032        -0.0525
     27 C33        -4.2770   -3.0960  -16.2050 C.3       1 032        -0.0891
     28 C08         7.1460   -4.3190  -21.0470 C.ar      1 032        -0.1124
     29 C09         8.2320   -4.8460  -21.7510 C.ar      1 032        -0.1224
     30 C11         9.6030   -2.9860  -21.0240 C.ar      1 032        -0.1224
     31 C12         8.5140   -2.4650  -20.3230 C.ar      1 032        -0.1124
     32 CL13       10.7950   -4.8200  -22.6010 Cl        1 032        -0.0959
     33 H15         0.9110   -0.9520  -18.1500 H         1 032         0.1775
     34 H22        -3.7160   -1.2490  -20.4350 H         1 032         0.1856
     35 H02         7.3180   -1.9270  -17.9490 H         1 032         0.0285
     36 H04         4.6260   -3.0660  -21.0460 H         1 032         0.1685
     37 H23        -2.0800    0.6030  -20.6830 H         1 032         0.1637
     38 HN27       -2.7411   -4.9089  -20.1626 H         1 032         0.4699
     39 H31        -4.1634   -2.0753  -18.4067 H         1 032         0.1174
     40 H31A       -5.9479   -2.2214  -18.5510 H         1 032         0.1174
     41 H32        -6.0572   -3.9188  -17.0843 H         1 032         0.0601
     42 H32A       -4.5254   -4.6656  -17.6520 H         1 032         0.0601
     43 H33        -4.2969   -3.7872  -15.3495 H         1 032         0.0395
     44 H33A       -4.7657   -2.1513  -15.9245 H         1 032         0.0395
     45 H33B       -3.2338   -2.8981  -16.4923 H         1 032         0.0395
     46 H08         6.1990   -4.8370  -21.0640 H         1 032         0.1416
     47 H09         8.1250   -5.7670  -22.3040 H         1 032         0.1500
     48 H11        10.5530   -2.4720  -21.0160 H         1 032         0.1500
     49 H12         8.6280   -1.5410  -19.7760 H         1 032         0.1416
     50 O19         1.8630   -3.2730  -21.2700 O.2       1 032        -0.5162
     51 H18         2.8468   -0.4714  -16.5759 H         1 032         0.4732
@<TRIPOS>BOND
     1    1   29 ar
     2    1   30 ar
     3    1   32 1
     4    2   12 ar
     5    2   13 ar
     6    2   33 1
     7    3   13 1
     8    3   17 1
     9    3   50 2
    10    4    5 ar
    11    4   17 ar
    12    4   20 1
    13    5    6 ar
    14    5   21 1
    15    6   18 ar
    16    6   34 1
    17    7   17 ar
    18    7   18 ar
    19    7   19 1
    20    8    9 ar
    21    8   11 ar
    22    8   16 1
    23    9   10 ar
    24    9   35 1
    25   10   15 ar
    26   11   14 ar
    27   11   36 1
    28   12   15 ar
    29   12   51 1
    30   13   14 ar
    31   14   15 ar
    32   16   28 ar
    33   16   31 ar
    34   18   37 1
    35   21   22 1
    36   21   38 1
    37   22   23 2
    38   22   24 2
    39   22   25 1
    40   25   26 1
    41   25   39 1
    42   25   40 1
    43   26   27 1
    44   26   41 1
    45   26   42 1
    46   27   43 1
    47   27   44 1
    48   27   45 1
    49   28   29 ar
    50   28   46 1
    51   29   47 1
    52   30   31 ar
    53   30   48 1
    54   31   49 1
@<TRIPOS>SUBSTRUCTURE
     1 032         1 GROUP   0 A     ****
