@<TRIPOS>MOLECULE
[3-[5-(4-chlorophenyl)-1~{H}-pyrrolo[2,3-b]pyridine-3-carbonyl]-2,4-difluoro-phenyl]-propylsulfonyl-azanide
   50    53     1     0     0
SMALL
USER_CHARGES

@<TRIPOS>ATOM
      1 C10         9.4540   -4.1760  -21.7350 C.ar      1 032         0.0100
      2 C15         1.9340   -1.2310  -18.3570 C.ar      1 032         0.0784
      3 C17         1.5160   -2.3160  -20.5970 C.2       1 032         0.6331
      4 C20        -0.8450   -3.0530  -20.4180 C.ar      1 032         0.0797
      5 C21        -2.2070   -2.7780  -20.3740 C.ar      1 032         0.3596
      6 C22        -2.6580   -1.4610  -20.4690 C.ar      1 032        -0.2598
      7 C24        -0.3870   -0.7200  -20.6490 C.ar      1 032         0.0265
      8 C01         6.1300   -2.5620  -19.5770 C.ar      1 032        -0.1977
      9 C02         6.3090   -1.9530  -18.3330 C.ar      1 032         0.4171
     10 N03         5.3540   -1.3930  -17.5580 N.ar      1 032        -0.6772
     11 C04         4.8250   -2.6070  -20.0890 C.ar      1 032        -0.0200
     12 N14         2.9990   -0.9880  -17.5350 N.pl3     1 032        -0.6848
     13 C16         2.3650   -1.8860  -19.4910 C.ar      1 032        -0.1945
     14 C05         3.7810   -2.0440  -19.3350 C.ar      1 032        -0.1554
     15 C06         4.1330   -1.4740  -18.1140 C.ar      1 032         0.5437
     16 C07         7.2690   -3.1240  -20.3170 C.ar      1 032        -0.0070
     17 C18         0.0730   -2.0290  -20.5490 C.ar      1 032        -0.1913
     18 C23        -1.7420   -0.4200  -20.6080 C.ar      1 032        -0.1148
     19 F25         0.4770    0.2870  -20.7820 F         1 032        -0.1647
     20 F26        -0.4260   -4.3170  -20.3250 F         1 032        -0.1355
     21 N27        -3.1160   -3.8770  -20.2300 N.2       1 032        -0.8504
     22 S28        -4.8030   -3.5710  -20.1630 S.o2      1 032         1.5035
     23 O29        -5.5100   -4.8280  -20.0310 O.2       1 032        -0.7145
     24 O30        -5.2060   -2.5980  -21.1570 O.2       1 032        -0.7145
     25 C31        -4.9970   -2.7740  -18.5710 C.3       1 032        -0.2867
     26 C32        -5.0160   -3.7200  -17.3780 C.3       1 032        -0.0486
     27 C33        -4.2770   -3.0960  -16.2050 C.3       1 032        -0.0818
     28 C08         7.1460   -4.3190  -21.0470 C.ar      1 032        -0.1181
     29 C09         8.2320   -4.8460  -21.7510 C.ar      1 032        -0.1240
     30 C11         9.6030   -2.9860  -21.0240 C.ar      1 032        -0.1240
     31 C12         8.5140   -2.4650  -20.3230 C.ar      1 032        -0.1181
     32 CL13       10.7950   -4.8200  -22.6010 Cl        1 032        -0.1120
     33 H15         0.9110   -0.9520  -18.1500 H         1 032         0.1876
     34 H22        -3.7160   -1.2490  -20.4350 H         1 032         0.1337
     35 H02         7.3180   -1.9270  -17.9490 H         1 032         0.0154
     36 H04         4.6260   -3.0660  -21.0460 H         1 032         0.1658
     37 H23        -2.0800    0.6030  -20.6830 H         1 032         0.1249
     38 H31        -4.1634   -2.0753  -18.4067 H         1 032         0.0735
     39 H31A       -5.9479   -2.2214  -18.5510 H         1 032         0.0735
     40 H32        -6.0572   -3.9188  -17.0843 H         1 032         0.0522
     41 H32A       -4.5254   -4.6656  -17.6520 H         1 032         0.0522
     42 H33        -4.2969   -3.7872  -15.3495 H         1 032         0.0190
     43 H33A       -4.7657   -2.1513  -15.9245 H         1 032         0.0190
     44 H33B       -3.2338   -2.8981  -16.4923 H         1 032         0.0190
     45 H08         6.1990   -4.8370  -21.0640 H         1 032         0.1443
     46 H09         8.1250   -5.7670  -22.3040 H         1 032         0.1442
     47 H11        10.5530   -2.4720  -21.0160 H         1 032         0.1442
     48 H12         8.6280   -1.5410  -19.7760 H         1 032         0.1443
     49 O19         1.8630   -3.2730  -21.2700 O.2       1 032        -0.5319
     50 H18         2.8468   -0.4714  -16.5759 H         1 032         0.4626
@<TRIPOS>BOND
     1    1   29 ar
     2    1   30 ar
     3    1   32 1
     4    2   12 ar
     5    2   13 ar
     6    2   33 1
     7    3   13 1
     8    3   17 1
     9    3   49 2
    10    4    5 ar
    11    4   17 ar
    12    4   20 1
    13    5    6 ar
    14    5   21 1
    15    6   18 ar
    16    6   34 1
    17    7   17 ar
    18    7   18 ar
    19    7   19 1
    20    8    9 ar
    21    8   11 ar
    22    8   16 1
    23    9   10 ar
    24    9   35 1
    25   10   15 ar
    26   11   14 ar
    27   11   36 1
    28   12   15 ar
    29   12   50 1
    30   13   14 ar
    31   14   15 ar
    32   16   28 ar
    33   16   31 ar
    34   18   37 1
    35   21   22 1
    36   22   23 2
    37   22   24 2
    38   22   25 1
    39   25   26 1
    40   25   38 1
    41   25   39 1
    42   26   27 1
    43   26   40 1
    44   26   41 1
    45   27   42 1
    46   27   43 1
    47   27   44 1
    48   28   29 ar
    49   28   45 1
    50   29   46 1
    51   30   31 ar
    52   30   47 1
    53   31   48 1
@<TRIPOS>SUBSTRUCTURE
     1 032         1 GROUP   0 A     ****
