@<TRIPOS>MOLECULE
~{N}-[3-[5-(4-chlorophenyl)-1~{H}-pyrrolo[2,3-b]pyridine-3-carbonyl]-2,4-difluoro-phenyl]propane-1-sulfonamide
   51    54     0     0     0
SMALL
USER_CHARGES

@<TRIPOS>ATOM
      1 C1          3.5300    3.5679   -8.2709 C.3       1 VEM        -0.0885
      2 C2          2.3274    4.4848   -8.1227 C.3       1 VEM        -0.0522
      3 C3          1.1564    3.7654   -7.4740 C.3       1 VEM        -0.3297
      4 S1         -0.2498    4.8412   -7.3019 S.o2      1 VEM         1.4595
      5 O1         -0.6151    5.2735   -8.6380 O.2       1 VEM        -0.6453
      6 O2          0.0572    5.8130   -6.2712 O.2       1 VEM        -0.6453
      7 N1         -1.4308    3.7172   -6.7633 N.pl3     1 VEM        -0.7747
      8 C4         -1.5653    3.5129   -5.3566 C.ar      1 VEM         0.0691
      9 C5         -1.9014    4.5835   -4.5281 C.ar      1 VEM        -0.0823
     10 C6         -2.0329    4.3871   -3.1534 C.ar      1 VEM        -0.1731
     11 C7         -1.8282    3.1201   -2.6072 C.ar      1 VEM         0.1766
     12 C8         -1.4920    2.0494   -3.4357 C.ar      1 VEM        -0.2266
     13 C9         -1.3605    2.2459   -4.8104 C.ar      1 VEM         0.1632
     14 F1         -1.0375    1.2164   -5.6080 F         1 VEM        -0.1203
     15 C10        -1.2749    0.7048   -2.8559 C.2       1 VEM         0.6294
     16 O3         -2.1903    0.1600   -2.2469 O.2       1 VEM        -0.5108
     17 C11        -0.0190    0.0234   -2.9889 C.2       1 VEM        -0.2256
     18 C12         0.1180   -1.3473   -3.0343 C.2       1 VEM         0.0801
     19 N2          1.4516   -1.6373   -3.1631 N.pl3     1 VEM        -0.6658
     20 C13         2.1733   -0.4734   -3.2018 C.ar      1 VEM         0.5414
     21 C14         1.2796    0.5882   -3.0946 C.ar      1 VEM        -0.1547
     22 C15         1.8136    1.8868   -3.1126 C.ar      1 VEM        -0.0328
     23 C16         3.1954    2.0205   -3.2361 C.ar      1 VEM        -0.1689
     24 C17         3.9712    0.8733   -3.3346 C.ar      1 VEM         0.4239
     25 N3          3.5123   -0.3998   -3.3227 N.ar      1 VEM        -0.6604
     26 C18         3.8084    3.3287   -3.2604 C.ar      1 VEM        -0.0287
     27 C19         5.1020    3.5019   -2.7680 C.ar      1 VEM        -0.1130
     28 C20         5.6939    4.7647   -2.7914 C.ar      1 VEM        -0.1224
     29 C21         4.9923    5.8544   -3.3072 C.ar      1 VEM         0.0189
     30 C22         3.6987    5.6811   -3.7994 C.ar      1 VEM        -0.1224
     31 C23         3.1068    4.4183   -3.7760 C.ar      1 VEM        -0.1130
     32 Cl1         5.7224    7.4125   -3.3360 Cl        1 VEM        -0.0929
     33 F2         -1.9574    2.9442   -1.2845 F         1 VEM        -0.1179
     34 H1          4.3607    4.1048   -8.7394 H         1 VEM         0.0392
     35 H2          3.8679    3.2036   -7.2954 H         1 VEM         0.0392
     36 H3          3.2888    2.7024   -8.8965 H         1 VEM         0.0392
     37 H4          2.0342    4.8618   -9.1095 H         1 VEM         0.0576
     38 H5          2.6081    5.3583   -7.5225 H         1 VEM         0.0576
     39 H6          0.8312    2.9111   -8.0753 H         1 VEM         0.1170
     40 H7          1.4119    3.4132   -6.4702 H         1 VEM         0.1170
     41 H8         -1.4960    2.8509   -7.3148 H         1 VEM         0.4648
     42 H9         -2.0632    5.5747   -4.9438 H         1 VEM         0.1821
     43 H10        -2.2946    5.2205   -2.5081 H         1 VEM         0.1658
     44 H11        -0.6114   -2.1442   -2.9869 H         1 VEM         0.1773
     45 H12         1.8435   -2.5670   -3.2202 H         1 VEM         0.4725
     46 H13         1.1657    2.7548   -3.0323 H         1 VEM         0.1648
     47 H14         5.0527    0.9440   -3.4335 H         1 VEM         0.0286
     48 H15         5.6617    2.6622   -2.3627 H         1 VEM         0.1423
     49 H16         6.7027    4.8850   -2.4045 H         1 VEM         0.1490
     50 H17         3.1402    6.5214   -4.2042 H         1 VEM         0.1490
     51 H18         2.0977    4.2993   -4.1633 H         1 VEM         0.1423
@<TRIPOS>BOND
     1    1    2 1
     2    2    3 1
     3    3    4 1
     4    4    5 2
     5    4    6 2
     6    4    7 1
     7    7    8 1
     8    8   13 ar
     9    8    9 ar
    10    9   10 ar
    11   10   11 ar
    12   11   12 ar
    13   12   13 ar
    14   13   14 1
    15   12   15 1
    16   15   16 2
    17   15   17 1
    18   17   21 1
    19   17   18 2
    20   18   19 1
    21   19   20 1
    22   20   25 ar
    23   20   21 ar
    24   21   22 ar
    25   22   23 ar
    26   23   24 ar
    27   24   25 ar
    28   23   26 1
    29   26   31 ar
    30   26   27 ar
    31   27   28 ar
    32   28   29 ar
    33   29   30 ar
    34   30   31 ar
    35   29   32 1
    36   11   33 1
    37    1   34 1
    38    1   35 1
    39    1   36 1
    40    2   37 1
    41    2   38 1
    42    3   39 1
    43    3   40 1
    44    7   41 1
    45    9   42 1
    46   10   43 1
    47   18   44 1
    48   19   45 1
    49   22   46 1
    50   24   47 1
    51   27   48 1
    52   28   49 1
    53   30   50 1
    54   31   51 1
