@<TRIPOS>MOLECULE
[3-[5-(4-chlorophenyl)-1~{H}-pyrrolo[2,3-b]pyridine-3-carbonyl]-2,4-difluoro-phenyl]-propylsulfonyl-azanide
   50    53     0     0     0
SMALL
USER_CHARGES

@<TRIPOS>ATOM
      1 C1          3.5300    3.5679   -8.2709 C.3       1 <0>        -0.0856
      2 C2          2.3274    4.4848   -8.1227 C.3       1 <0>        -0.0355
      3 C3          1.1564    3.7654   -7.4740 C.3       1 <0>        -0.2913
      4 S1         -0.2498    4.8412   -7.3019 S.o2      1 <0>         1.4526
      5 O1         -0.6151    5.2735   -8.6380 O.2       1 <0>        -0.7151
      6 O2          0.0572    5.8130   -6.2712 O.2       1 <0>        -0.7151
      7 N1         -1.4308    3.7172   -6.7633 N.2       1 <0>        -0.8029
      8 C4         -1.5653    3.5129   -5.3566 C.ar      1 <0>         0.3034
      9 C5         -1.9014    4.5835   -4.5281 C.ar      1 <0>        -0.2466
     10 C6         -2.0329    4.3871   -3.1534 C.ar      1 <0>        -0.1230
     11 C7         -1.8282    3.1201   -2.6072 C.ar      1 <0>         0.0266
     12 C8         -1.4920    2.0494   -3.4357 C.ar      1 <0>        -0.1986
     13 C9         -1.3605    2.2459   -4.8104 C.ar      1 <0>         0.0954
     14 F1         -1.0375    1.2164   -5.6080 F         1 <0>        -0.1305
     15 C10        -1.2749    0.7048   -2.8559 C.2       1 <0>         0.6353
     16 O3         -2.1903    0.1600   -2.2469 O.2       1 <0>        -0.5384
     17 C11        -0.0190    0.0234   -2.9889 C.2       1 <0>        -0.2072
     18 C12         0.1180   -1.3473   -3.0343 C.2       1 <0>         0.0900
     19 N2          1.4516   -1.6373   -3.1631 N.pl3     1 <0>        -0.6802
     20 C13         2.1733   -0.4734   -3.2018 C.ar      1 <0>         0.5399
     21 C14         1.2796    0.5882   -3.0946 C.ar      1 <0>        -0.1545
     22 C15         1.8136    1.8868   -3.1126 C.ar      1 <0>        -0.0238
     23 C16         3.1954    2.0205   -3.2361 C.ar      1 <0>        -0.1936
     24 C17         3.9712    0.8733   -3.3346 C.ar      1 <0>         0.4148
     25 N3          3.5123   -0.3998   -3.3227 N.ar      1 <0>        -0.6754
     26 C18         3.8084    3.3287   -3.2604 C.ar      1 <0>        -0.0067
     27 C19         5.1020    3.5019   -2.7680 C.ar      1 <0>        -0.1182
     28 C20         5.6939    4.7647   -2.7914 C.ar      1 <0>        -0.1239
     29 C21         4.9923    5.8544   -3.3072 C.ar      1 <0>         0.0103
     30 C22         3.6987    5.6811   -3.7994 C.ar      1 <0>        -0.1239
     31 C23         3.1068    4.4183   -3.7760 C.ar      1 <0>        -0.1182
     32 Cl1         5.7224    7.4125   -3.3360 Cl        1 <0>        -0.1098
     33 F2         -1.9574    2.9442   -1.2845 F         1 <0>        -0.1676
     34 H1          4.3562    4.1201   -8.7426 H         1 <0>         0.0208
     35 H2          3.2591    2.7064   -8.8990 H         1 <0>         0.0208
     36 H3          3.8453    3.2134   -7.2785 H         1 <0>         0.0208
     37 H4          2.5983    5.3463   -7.4946 H         1 <0>         0.0448
     38 H5          2.0121    4.8393   -9.1151 H         1 <0>         0.0448
     39 H6          0.8647    2.9056   -8.0951 H         1 <0>         0.0820
     40 H7          1.4509    3.4126   -6.4746 H         1 <0>         0.0820
     41 H8         -2.0632    5.5747   -4.9438 H         1 <0>         0.1568
     42 H9         -2.2946    5.2205   -2.5081 H         1 <0>         0.1272
     43 H10        -0.6114   -2.1442   -2.9869 H         1 <0>         0.1937
     44 H11         1.7839   -2.6845   -3.2181 H         1 <0>         0.4639
     45 H12         1.1657    2.7548   -3.0323 H         1 <0>         0.1705
     46 H13         5.0527    0.9440   -3.4335 H         1 <0>         0.0154
     47 H14         5.6617    2.6622   -2.3627 H         1 <0>         0.1434
     48 H15         6.7027    4.8850   -2.4045 H         1 <0>         0.1435
     49 H16         3.1402    6.5214   -4.2042 H         1 <0>         0.1435
     50 H17         2.0977    4.2993   -4.1633 H         1 <0>         0.1434
@<TRIPOS>BOND
     1    1    2 1
     2    1   34 1
     3    1   35 1
     4    1   36 1
     5    2    3 1
     6    2   37 1
     7    2   38 1
     8    3    4 1
     9    3   39 1
    10    3   40 1
    11    4    5 2
    12    4    6 2
    13    4    7 1
    14    7    8 1
    15    8   13 ar
    16    8    9 ar
    17    9   10 ar
    18    9   41 1
    19   10   11 ar
    20   10   42 1
    21   11   12 ar
    22   11   33 1
    23   12   13 ar
    24   12   15 1
    25   13   14 1
    26   15   16 2
    27   15   17 1
    28   17   21 1
    29   17   18 2
    30   18   19 1
    31   18   43 1
    32   19   20 1
    33   19   44 1
    34   20   25 ar
    35   20   21 ar
    36   21   22 ar
    37   22   23 ar
    38   22   45 1
    39   23   24 ar
    40   23   26 1
    41   24   25 ar
    42   24   46 1
    43   26   31 ar
    44   26   27 ar
    45   27   28 ar
    46   27   47 1
    47   28   29 ar
    48   28   48 1
    49   29   30 ar
    50   29   32 1
    51   30   31 ar
    52   30   49 1
    53   31   50 1
@<TRIPOS>MOLECULE
~{N}-[3-[5-(4-chlorophenyl)-1~{H}-pyrrolo[2,3-b]pyridine-3-carbonyl]-2,4-difluoro-phenyl]propane-1-sulfonamide
   51    54     0     0     0
SMALL
USER_CHARGES

@<TRIPOS>ATOM
      1 C1          3.5300    3.5679   -8.2709 C.3       1 <0>        -0.0885
      2 C2          2.3274    4.4848   -8.1227 C.3       1 <0>        -0.0522
      3 C3          1.1564    3.7654   -7.4740 C.3       1 <0>        -0.3297
      4 S1         -0.2498    4.8412   -7.3019 S.o2      1 <0>         1.4595
      5 O1         -0.6151    5.2735   -8.6380 O.2       1 <0>        -0.6453
      6 O2          0.0572    5.8130   -6.2712 O.2       1 <0>        -0.6453
      7 N1         -1.4308    3.7172   -6.7633 N.pl3     1 <0>        -0.7747
      8 C4         -1.5653    3.5129   -5.3566 C.ar      1 <0>         0.0691
      9 C5         -1.9014    4.5835   -4.5281 C.ar      1 <0>        -0.0822
     10 C6         -2.0329    4.3871   -3.1534 C.ar      1 <0>        -0.1732
     11 C7         -1.8282    3.1201   -2.6072 C.ar      1 <0>         0.1766
     12 C8         -1.4920    2.0494   -3.4357 C.ar      1 <0>        -0.2267
     13 C9         -1.3605    2.2459   -4.8104 C.ar      1 <0>         0.1632
     14 F1         -1.0375    1.2164   -5.6080 F         1 <0>        -0.1204
     15 C10        -1.2749    0.7048   -2.8559 C.2       1 <0>         0.6295
     16 O3         -2.1903    0.1600   -2.2469 O.2       1 <0>        -0.5107
     17 C11        -0.0190    0.0234   -2.9889 C.2       1 <0>        -0.2256
     18 C12         0.1180   -1.3473   -3.0343 C.2       1 <0>         0.0803
     19 N2          1.4516   -1.6373   -3.1631 N.pl3     1 <0>        -0.6658
     20 C13         2.1733   -0.4734   -3.2018 C.ar      1 <0>         0.5414
     21 C14         1.2796    0.5882   -3.0946 C.ar      1 <0>        -0.1547
     22 C15         1.8136    1.8868   -3.1126 C.ar      1 <0>        -0.0328
     23 C16         3.1954    2.0205   -3.2361 C.ar      1 <0>        -0.1689
     24 C17         3.9712    0.8733   -3.3346 C.ar      1 <0>         0.4239
     25 N3          3.5123   -0.3998   -3.3227 N.ar      1 <0>        -0.6604
     26 C18         3.8084    3.3287   -3.2604 C.ar      1 <0>        -0.0287
     27 C19         5.1020    3.5019   -2.7680 C.ar      1 <0>        -0.1130
     28 C20         5.6939    4.7647   -2.7914 C.ar      1 <0>        -0.1224
     29 C21         4.9923    5.8544   -3.3072 C.ar      1 <0>         0.0187
     30 C22         3.6987    5.6811   -3.7994 C.ar      1 <0>        -0.1224
     31 C23         3.1068    4.4183   -3.7760 C.ar      1 <0>        -0.1130
     32 Cl1         5.7224    7.4125   -3.3360 Cl        1 <0>        -0.0929
     33 F2         -1.9574    2.9442   -1.2845 F         1 <0>        -0.1179
     34 H1          4.3562    4.1201   -8.7426 H         1 <0>         0.0391
     35 H2          3.2591    2.7064   -8.8990 H         1 <0>         0.0391
     36 H3          3.8453    3.2134   -7.2785 H         1 <0>         0.0391
     37 H4          2.5983    5.3463   -7.4946 H         1 <0>         0.0576
     38 H5          2.0121    4.8393   -9.1151 H         1 <0>         0.0576
     39 H6          0.8647    2.9056   -8.0951 H         1 <0>         0.1170
     40 H7          1.4509    3.4126   -6.4746 H         1 <0>         0.1170
     41 H8         -2.0541    3.1816   -7.4945 H         1 <0>         0.4648
     42 H9         -2.0632    5.5747   -4.9438 H         1 <0>         0.1821
     43 H10        -2.2946    5.2205   -2.5081 H         1 <0>         0.1658
     44 H11        -0.6114   -2.1442   -2.9869 H         1 <0>         0.1773
     45 H12         1.7839   -2.6845   -3.2181 H         1 <0>         0.4725
     46 H13         1.1657    2.7548   -3.0323 H         1 <0>         0.1648
     47 H14         5.0527    0.9440   -3.4335 H         1 <0>         0.0286
     48 H15         5.6617    2.6622   -2.3627 H         1 <0>         0.1423
     49 H16         6.7027    4.8850   -2.4045 H         1 <0>         0.1490
     50 H17         3.1402    6.5214   -4.2042 H         1 <0>         0.1490
     51 H18         2.0977    4.2993   -4.1633 H         1 <0>         0.1423
@<TRIPOS>BOND
     1    1    2 1
     2    1   34 1
     3    1   35 1
     4    1   36 1
     5    2    3 1
     6    2   37 1
     7    2   38 1
     8    3    4 1
     9    3   39 1
    10    3   40 1
    11    4    5 2
    12    4    6 2
    13    4    7 1
    14    7    8 1
    15    7   41 1
    16    8   13 ar
    17    8    9 ar
    18    9   10 ar
    19    9   42 1
    20   10   11 ar
    21   10   43 1
    22   11   12 ar
    23   11   33 1
    24   12   13 ar
    25   12   15 1
    26   13   14 1
    27   15   16 2
    28   15   17 1
    29   17   21 1
    30   17   18 2
    31   18   19 1
    32   18   44 1
    33   19   20 1
    34   19   45 1
    35   20   25 ar
    36   20   21 ar
    37   21   22 ar
    38   22   23 ar
    39   22   46 1
    40   23   24 ar
    41   23   26 1
    42   24   25 ar
    43   24   47 1
    44   26   31 ar
    45   26   27 ar
    46   27   28 ar
    47   27   48 1
    48   28   29 ar
    49   28   49 1
    50   29   30 ar
    51   29   32 1
    52   30   31 ar
    53   30   50 1
    54   31   51 1
@<TRIPOS>MOLECULE
[3-[5-(4-chlorophenyl)pyrrolo[2,3-b]pyridin-1-ide-3-carbonyl]-2,4-difluoro-phenyl]-propylsulfonyl-azanide
   49    52     0     0     0
SMALL
USER_CHARGES

@<TRIPOS>ATOM
      1 C1          3.5300    3.5679   -8.2709 C.3       1 <0>        -0.0807
      2 C2          2.3274    4.4848   -8.1227 C.3       1 <0>        -0.0461
      3 C3          1.1564    3.7654   -7.4740 C.3       1 <0>        -0.2866
      4 S1         -0.2498    4.8412   -7.3019 S.o2      1 <0>         1.4875
      5 O1         -0.6151    5.2735   -8.6380 O.2       1 <0>        -0.7324
      6 O2          0.0572    5.8130   -6.2712 O.2       1 <0>        -0.7324
      7 N1         -1.4308    3.7172   -6.7633 N.2       1 <0>        -0.8522
      8 C4         -1.5653    3.5129   -5.3566 C.ar      1 <0>         0.3116
      9 C5         -1.9014    4.5835   -4.5281 C.ar      1 <0>        -0.2591
     10 C6         -2.0329    4.3871   -3.1534 C.ar      1 <0>        -0.1401
     11 C7         -1.8282    3.1201   -2.6072 C.ar      1 <0>         0.0633
     12 C8         -1.4920    2.0494   -3.4357 C.ar      1 <0>        -0.1641
     13 C9         -1.3605    2.2459   -4.8104 C.ar      1 <0>         0.0949
     14 F1         -1.0375    1.2164   -5.6080 F         1 <0>        -0.1365
     15 C10        -1.2749    0.7048   -2.8559 C.2       1 <0>         0.6407
     16 O3         -2.1903    0.1600   -2.2469 O.2       1 <0>        -0.6052
     17 C11        -0.0190    0.0234   -2.9889 C.2       1 <0>        -0.3239
     18 C12         0.1180   -1.3473   -3.0343 C.2       1 <0>         0.0355
     19 N2          1.4516   -1.6373   -3.1631 N.2       1 <0>        -0.4970
     20 C13         2.1733   -0.4734   -3.2018 C.ar      1 <0>         0.4974
     21 C14         1.2796    0.5882   -3.0946 C.ar      1 <0>        -0.1769
     22 C15         1.8136    1.8868   -3.1126 C.ar      1 <0>        -0.0418
     23 C16         3.1954    2.0205   -3.2361 C.ar      1 <0>        -0.2666
     24 C17         3.9712    0.8733   -3.3346 C.ar      1 <0>         0.3758
     25 N3          3.5123   -0.3998   -3.3227 N.ar      1 <0>        -0.6732
     26 C18         3.8084    3.3287   -3.2604 C.ar      1 <0>         0.0594
     27 C19         5.1020    3.5019   -2.7680 C.ar      1 <0>        -0.1440
     28 C20         5.6939    4.7647   -2.7914 C.ar      1 <0>        -0.1235
     29 C21         4.9923    5.8544   -3.3072 C.ar      1 <0>        -0.0223
     30 C22         3.6987    5.6811   -3.7994 C.ar      1 <0>        -0.1235
     31 C23         3.1068    4.4183   -3.7760 C.ar      1 <0>        -0.1440
     32 Cl1         5.7224    7.4125   -3.3360 Cl        1 <0>        -0.1564
     33 F2         -1.9574    2.9442   -1.2845 F         1 <0>        -0.1556
     34 H1          4.3562    4.1201   -8.7426 H         1 <0>         0.0144
     35 H2          3.2591    2.7064   -8.8990 H         1 <0>         0.0144
     36 H3          3.8453    3.2134   -7.2785 H         1 <0>         0.0144
     37 H4          2.5983    5.3463   -7.4946 H         1 <0>         0.0492
     38 H5          2.0121    4.8393   -9.1151 H         1 <0>         0.0492
     39 H6          0.8647    2.9056   -8.0951 H         1 <0>         0.0712
     40 H7          1.4509    3.4126   -6.4746 H         1 <0>         0.0712
     41 H8         -2.0632    5.5747   -4.9438 H         1 <0>         0.1216
     42 H9         -2.2946    5.2205   -2.5081 H         1 <0>         0.1159
     43 H10        -0.6114   -2.1442   -2.9869 H         1 <0>         0.1411
     44 H11         1.1657    2.7548   -3.0323 H         1 <0>         0.1386
     45 H12         5.0527    0.9440   -3.4335 H         1 <0>        -0.0250
     46 H13         5.6617    2.6622   -2.3627 H         1 <0>         0.1445
     47 H14         6.7027    4.8850   -2.4045 H         1 <0>         0.1265
     48 H15         3.1402    6.5214   -4.2042 H         1 <0>         0.1265
     49 H16         2.0977    4.2993   -4.1633 H         1 <0>         0.1445
@<TRIPOS>BOND
     1    1    2 1
     2    1   34 1
     3    1   35 1
     4    1   36 1
     5    2    3 1
     6    2   37 1
     7    2   38 1
     8    3    4 1
     9    3   39 1
    10    3   40 1
    11    4    5 2
    12    4    6 2
    13    4    7 1
    14    7    8 1
    15    8   13 ar
    16    8    9 ar
    17    9   10 ar
    18    9   41 1
    19   10   11 ar
    20   10   42 1
    21   11   12 ar
    22   11   33 1
    23   12   13 ar
    24   12   15 1
    25   13   14 1
    26   15   16 2
    27   15   17 1
    28   17   21 1
    29   17   18 2
    30   18   19 1
    31   18   43 1
    32   19   20 1
    33   20   25 ar
    34   20   21 ar
    35   21   22 ar
    36   22   23 ar
    37   22   44 1
    38   23   24 ar
    39   23   26 1
    40   24   25 ar
    41   24   45 1
    42   26   31 ar
    43   26   27 ar
    44   27   28 ar
    45   27   46 1
    46   28   29 ar
    47   28   47 1
    48   29   30 ar
    49   29   32 1
    50   30   31 ar
    51   30   48 1
    52   31   49 1
@<TRIPOS>MOLECULE
[3-[5-(4-chlorophenyl)-1~{H}-pyrrolo[2,3-b]pyridin-7-ium-3-carbonyl]-2,4-difluoro-phenyl]-propylsulfonyl-azanide
   51    54     0     0     0
SMALL
USER_CHARGES

@<TRIPOS>ATOM
      1 C1          3.5300    3.5679   -8.2709 C.3       1 <0>        -0.0840
      2 C2          2.3274    4.4848   -8.1227 C.3       1 <0>        -0.0450
      3 C3          1.1564    3.7654   -7.4740 C.3       1 <0>        -0.2909
      4 S1         -0.2498    4.8412   -7.3019 S.o2      1 <0>         1.5273
      5 O1         -0.6151    5.2735   -8.6380 O.2       1 <0>        -0.7086
      6 O2          0.0572    5.8130   -6.2712 O.2       1 <0>        -0.7086
      7 N1         -1.4308    3.7172   -6.7633 N.2       1 <0>        -0.8679
      8 C4         -1.5653    3.5129   -5.3566 C.ar      1 <0>         0.3719
      9 C5         -1.9014    4.5835   -4.5281 C.ar      1 <0>        -0.2089
     10 C6         -2.0329    4.3871   -3.1534 C.ar      1 <0>        -0.1131
     11 C7         -1.8282    3.1201   -2.6072 C.ar      1 <0>         0.0202
     12 C8         -1.4920    2.0494   -3.4357 C.ar      1 <0>        -0.2136
     13 C9         -1.3605    2.2459   -4.8104 C.ar      1 <0>         0.0539
     14 F1         -1.0375    1.2164   -5.6080 F         1 <0>        -0.1394
     15 C10        -1.2749    0.7048   -2.8559 C.2       1 <0>         0.6306
     16 O3         -2.1903    0.1600   -2.2469 O.2       1 <0>        -0.4865
     17 C11        -0.0190    0.0234   -2.9889 C.2       1 <0>        -0.1404
     18 C12         0.1180   -1.3473   -3.0343 C.2       1 <0>         0.0861
     19 N2          1.4516   -1.6373   -3.1631 N.pl3     1 <0>        -0.5646
     20 C13         2.1733   -0.4734   -3.2018 C.ar      1 <0>         0.1300
     21 C14         1.2796    0.5882   -3.0946 C.ar      1 <0>        -0.0659
     22 C15         1.8136    1.8868   -3.1126 C.ar      1 <0>         0.0526
     23 C16         3.1954    2.0205   -3.2361 C.ar      1 <0>        -0.0537
     24 C17         3.9712    0.8733   -3.3346 C.ar      1 <0>        -0.0272
     25 N3          3.5123   -0.3998   -3.3227 N.ar      1 <0>        -0.1102
     26 C18         3.8084    3.3287   -3.2604 C.ar      1 <0>        -0.0761
     27 C19         5.1020    3.5019   -2.7680 C.ar      1 <0>        -0.0980
     28 C20         5.6939    4.7647   -2.7914 C.ar      1 <0>        -0.1187
     29 C21         4.9923    5.8544   -3.3072 C.ar      1 <0>         0.0399
     30 C22         3.6987    5.6811   -3.7994 C.ar      1 <0>        -0.1187
     31 C23         3.1068    4.4183   -3.7760 C.ar      1 <0>        -0.0980
     32 Cl1         5.7224    7.4125   -3.3360 Cl        1 <0>        -0.0574
     33 F2         -1.9574    2.9442   -1.2845 F         1 <0>        -0.1817
     34 H1          4.3562    4.1201   -8.7426 H         1 <0>         0.0229
     35 H2          3.2591    2.7064   -8.8990 H         1 <0>         0.0229
     36 H3          3.8453    3.2134   -7.2785 H         1 <0>         0.0229
     37 H4          2.5983    5.3463   -7.4946 H         1 <0>         0.0506
     38 H5          2.0121    4.8393   -9.1151 H         1 <0>         0.0506
     39 H6          0.8647    2.9056   -8.0951 H         1 <0>         0.0785
     40 H7          1.4509    3.4126   -6.4746 H         1 <0>         0.0785
     41 H8         -2.0632    5.5747   -4.9438 H         1 <0>         0.1604
     42 H9         -2.2946    5.2205   -2.5081 H         1 <0>         0.1346
     43 H10        -0.6114   -2.1442   -2.9869 H         1 <0>         0.2246
     44 H11         1.7839   -2.6845   -3.2181 H         1 <0>         0.4833
     45 H12         1.1657    2.7548   -3.0323 H         1 <0>         0.2044
     46 H13         5.0527    0.9440   -3.4335 H         1 <0>         0.1957
     47 H14         5.6617    2.6622   -2.3627 H         1 <0>         0.1422
     48 H15         6.7027    4.8850   -2.4045 H         1 <0>         0.1629
     49 H16         3.1402    6.5214   -4.2042 H         1 <0>         0.1629
     50 H17         2.0977    4.2993   -4.1633 H         1 <0>         0.1422
     51 H18         4.1091   -1.3207   -3.3992 H         1 <0>         0.3249
@<TRIPOS>BOND
     1    1    2 1
     2    1   34 1
     3    1   35 1
     4    1   36 1
     5    2    3 1
     6    2   37 1
     7    2   38 1
     8    3    4 1
     9    3   39 1
    10    3   40 1
    11    4    5 2
    12    4    6 2
    13    4    7 1
    14    7    8 1
    15    8   13 ar
    16    8    9 ar
    17    9   10 ar
    18    9   41 1
    19   10   11 ar
    20   10   42 1
    21   11   12 ar
    22   11   33 1
    23   12   13 ar
    24   12   15 1
    25   13   14 1
    26   15   16 2
    27   15   17 1
    28   17   21 1
    29   17   18 2
    30   18   19 1
    31   18   43 1
    32   19   20 1
    33   19   44 1
    34   20   25 ar
    35   20   21 ar
    36   21   22 ar
    37   22   23 ar
    38   22   45 1
    39   23   24 ar
    40   23   26 1
    41   24   25 ar
    42   24   46 1
    43   25   51 1
    44   26   31 ar
    45   26   27 ar
    46   27   28 ar
    47   27   47 1
    48   28   29 ar
    49   28   48 1
    50   29   30 ar
    51   29   32 1
    52   30   31 ar
    53   30   49 1
    54   31   50 1
