@<TRIPOS>MOLECULE
3-[(1~{R})-1-(2,6-dichloro-3-fluoro-phenyl)ethoxy]-5-[1-(4-piperidyl)pyrazol-4-yl]pyridin-2-amine
   52    55     0     0     0
SMALL
USER_CHARGES

@<TRIPOS>ATOM
      1 C1          7.2574   -5.0035   -2.4989 C.3       1 CRI        -0.1301
      2 C2          5.7795   -4.9328   -2.8571 C.3       1 CRI         0.1821
      3 H1          5.2793   -4.2520   -2.1581 H         1 CRI         0.0710
      4 C3          5.1215   -6.2919   -2.8552 C.ar      1 CRI        -0.0373
      5 C4          5.0946   -7.0546   -4.0228 C.ar      1 CRI         0.0359
      6 C5          4.4865   -8.3100   -4.0219 C.ar      1 CRI        -0.1065
      7 C6          3.9053   -8.8026   -2.8535 C.ar      1 CRI        -0.1445
      8 C7          3.9322   -8.0399   -1.6859 C.ar      1 CRI         0.1329
      9 C8          4.5402   -6.7845   -1.6868 C.ar      1 CRI        -0.0076
     10 Cl1         4.5541   -5.8684   -0.2221 Cl        1 CRI        -0.0576
     11 F1          3.3693   -8.5294   -0.5716 F         1 CRI        -0.1200
     12 Cl2         5.8015   -6.4840   -5.4915 Cl        1 CRI        -0.0784
     13 O1          5.6466   -4.3734   -4.1585 O.3       1 CRI        -0.3269
     14 C9          4.9309   -3.2232   -4.2595 C.ar      1 CRI        -0.0524
     15 C10         5.4832   -2.0498   -4.7473 C.ar      1 CRI         0.6229
     16 N1          4.8060   -0.8855   -4.8630 N.ar      1 CRI        -0.7111
     17 C11         3.5126   -0.9018   -4.4698 C.ar      1 CRI         0.4198
     18 C12         2.8679   -2.0214   -3.9692 C.ar      1 CRI        -0.1327
     19 C13         3.5978   -3.2003   -3.8652 C.ar      1 CRI        -0.1135
     20 C14         1.4950   -1.9665   -3.5726 C.2       1 CRI        -0.2022
     21 C15         0.9461   -2.7689   -2.5544 C.2       1 CRI        -0.1366
     22 N2         -0.3557   -2.5395   -2.3625 N.pl3     1 CRI         0.0909
     23 N3         -0.6335   -1.5843   -3.2661 N.2       1 CRI        -0.5022
     24 C16         0.4408   -1.2062   -4.0164 C.2       1 CRI         0.2996
     25 C17        -1.3475   -3.1104   -1.4453 C.3       1 CRI         0.0752
     26 C18        -1.8656   -2.0889   -0.4207 C.3       1 CRI        -0.0883
     27 C19        -2.9116   -2.7200    0.4982 C.3       1 CRI         0.1632
     28 N4         -4.0137   -3.3062   -0.2655 N.3       1 CRI        -0.8201
     29 C20        -3.5389   -4.3383   -1.1879 C.3       1 CRI         0.1632
     30 C21        -2.5206   -3.7777   -2.1805 C.3       1 CRI        -0.0883
     31 N5          6.8427   -2.0723   -5.1481 N.pl3     1 CRI        -0.9136
     32 H2          7.8008   -5.6742   -3.1721 H         1 CRI         0.0562
     33 H3          7.4079   -5.3499   -1.4702 H         1 CRI         0.0562
     34 H4          7.7096   -4.0074   -2.5590 H         1 CRI         0.0562
     35 H5          4.4566   -8.9171   -4.9234 H         1 CRI         0.1580
     36 H6          3.4321   -9.7802   -2.8524 H         1 CRI         0.1617
     37 H7          2.9990    0.0494   -4.5767 H         1 CRI         0.0209
     38 H8          3.1354   -4.1057   -3.4780 H         1 CRI         0.1466
     39 H9          1.4552   -3.5097   -1.9501 H         1 CRI         0.1775
     40 H10         0.3372   -0.4467   -4.7759 H         1 CRI         0.0414
     41 H11        -0.7810   -3.9047   -0.8937 H         1 CRI         0.0542
     42 H12        -1.0326   -1.7010    0.1783 H         1 CRI         0.0668
     43 H13        -2.3050   -1.2263   -0.9400 H         1 CRI         0.0668
     44 H14        -2.4463   -3.4828    1.1344 H         1 CRI         0.0312
     45 H15        -3.3139   -1.9491    1.1645 H         1 CRI         0.0312
     46 H16        -4.6871   -3.7175    0.3804 H         1 CRI         0.3684
     47 H17        -3.1017   -5.1734   -0.6269 H         1 CRI         0.0312
     48 H18        -4.3950   -4.7392   -1.7416 H         1 CRI         0.0312
     49 H19        -2.1510   -4.5838   -2.8261 H         1 CRI         0.0668
     50 H20        -3.0127   -3.0506   -2.8405 H         1 CRI         0.0668
     51 H21         7.3669   -2.9106   -5.0232 H         1 CRI         0.4117
     52 H22         7.2668   -1.2250   -5.4565 H         1 CRI         0.4117
@<TRIPOS>BOND
     1    1    2 1
     2    2    3 1
     3    2    4 1
     4    4    9 ar
     5    4    5 ar
     6    5    6 ar
     7    6    7 ar
     8    7    8 ar
     9    8    9 ar
    10    9   10 1
    11    8   11 1
    12    5   12 1
    13    2   13 1
    14   13   14 1
    15   14   19 ar
    16   14   15 ar
    17   15   16 ar
    18   16   17 ar
    19   17   18 ar
    20   18   19 ar
    21   18   20 1
    22   20   24 1
    23   20   21 2
    24   21   22 1
    25   22   23 1
    26   23   24 2
    27   22   25 1
    28   25   30 1
    29   25   26 1
    30   26   27 1
    31   27   28 1
    32   28   29 1
    33   29   30 1
    34   15   31 1
    35    1   32 1
    36    1   33 1
    37    1   34 1
    38    6   35 1
    39    7   36 1
    40   17   37 1
    41   19   38 1
    42   21   39 1
    43   24   40 1
    44   25   41 1
    45   26   42 1
    46   26   43 1
    47   27   44 1
    48   27   45 1
    49   28   46 1
    50   29   47 1
    51   29   48 1
    52   30   49 1
    53   30   50 1
    54   31   51 1
    55   31   52 1
