3-[(1~{R})-1-(2,6-dichloro-3-fluoro-phenyl)ethoxy]-5-[1-(4-piperidyl)pyrazol-4-yl]pyridin-2-amine
                    3D
 Structure written by MMmdl.
 54 57  0  0  1  0            999 V2000
    7.2574   -5.0035   -2.4989 C   0  0  0  0  0  0
    5.7795   -4.9328   -2.8571 C   0  0  2  0  0  0
    5.2599   -4.2745   -2.1452 H   0  0  0  0  0  0
    5.1215   -6.2919   -2.8552 C   0  0  0  0  0  0
    5.0946   -7.0546   -4.0228 C   0  0  0  0  0  0
    4.4865   -8.3100   -4.0219 C   0  0  0  0  0  0
    3.9053   -8.8026   -2.8535 C   0  0  0  0  0  0
    3.9322   -8.0399   -1.6859 C   0  0  0  0  0  0
    4.5402   -6.7845   -1.6868 C   0  0  0  0  0  0
    4.5541   -5.8684   -0.2221 Cl  0  0  0  0  0  0
    3.3693   -8.5294   -0.5716 F   0  0  0  0  0  0
    5.8015   -6.4840   -5.4915 Cl  0  0  0  0  0  0
    5.6466   -4.3734   -4.1585 O   0  0  0  0  0  0
    4.9309   -3.2232   -4.2595 C   0  0  0  0  0  0
    5.4832   -2.0498   -4.7473 C   0  0  0  0  0  0
    4.8060   -0.8855   -4.8630 N   0  3  0  0  0  0
    3.5126   -0.9018   -4.4698 C   0  0  0  0  0  0
    2.8679   -2.0214   -3.9692 C   0  0  0  0  0  0
    3.5978   -3.2003   -3.8652 C   0  0  0  0  0  0
    1.4950   -1.9665   -3.5726 C   0  0  0  0  0  0
    0.9461   -2.7689   -2.5544 C   0  0  0  0  0  0
   -0.3557   -2.5395   -2.3625 N   0  0  0  0  0  0
   -0.6335   -1.5843   -3.2661 N   0  0  0  0  0  0
    0.4408   -1.2062   -4.0164 C   0  0  0  0  0  0
   -1.3475   -3.1104   -1.4453 C   0  0  0  0  0  0
   -1.8656   -2.0889   -0.4207 C   0  0  0  0  0  0
   -2.9116   -2.7200    0.4982 C   0  0  0  0  0  0
   -4.0137   -3.3062   -0.2655 N   0  3  0  0  0  0
   -3.5389   -4.3383   -1.1879 C   0  0  0  0  0  0
   -2.5206   -3.7777   -2.1805 C   0  0  0  0  0  0
    6.8427   -2.0723   -5.1481 N   0  0  0  0  0  0
    7.6873   -3.9911   -2.5146 H   0  0  0  0  0  0
    7.7820   -5.6360   -3.2301 H   0  0  0  0  0  0
    7.3707   -5.4345   -1.4932 H   0  0  0  0  0  0
    4.4566   -8.9171   -4.9234 H   0  0  0  0  0  0
    3.4321   -9.7802   -2.8524 H   0  0  0  0  0  0
    2.9990    0.0494   -4.5767 H   0  0  0  0  0  0
    3.1354   -4.1057   -3.4780 H   0  0  0  0  0  0
    1.4552   -3.5097   -1.9501 H   0  0  0  0  0  0
    0.3372   -0.4467   -4.7759 H   0  0  0  0  0  0
   -0.7641   -3.8820   -0.9216 H   0  0  0  0  0  0
   -1.0273   -1.7281    0.1934 H   0  0  0  0  0  0
   -2.3250   -1.2404   -0.9489 H   0  0  0  0  0  0
   -2.4421   -3.5144    1.0969 H   0  0  0  0  0  0
   -3.3232   -1.9507    1.1681 H   0  0  0  0  0  0
   -4.7364   -3.7637    0.4261 H   0  0  0  0  0  0
   -3.0596   -5.1475   -0.6174 H   0  0  0  0  0  0
   -4.3903   -4.7436   -1.7544 H   0  0  0  0  0  0
   -3.0218   -3.0363   -2.8202 H   0  0  0  0  0  0
   -2.1422   -4.6024   -2.8023 H   0  0  0  0  0  0
    7.3156   -1.1599   -5.5404 H   0  0  0  0  0  0
    7.4248   -3.0021   -5.0668 H   0  0  0  0  0  0
   -4.5133   -2.5200   -0.8506 H   0  0  0  0  0  0
    5.3112    0.0075   -5.2597 H   0  0  0  0  0  0
  1  2  1  0  0  0
  1 32  1  0  0  0
  1 33  1  0  0  0
  1 34  1  0  0  0
  2  3  1  0  0  0
  2  4  1  0  0  0
  2 13  1  0  0  0
  4  9  2  0  0  0
  4  5  1  0  0  0
  5  6  2  0  0  0
  5 12  1  0  0  0
  6  7  1  0  0  0
  6 35  1  0  0  0
  7  8  2  0  0  0
  7 36  1  0  0  0
  8  9  1  0  0  0
  8 11  1  0  0  0
  9 10  1  0  0  0
 13 14  1  0  0  0
 14 19  2  0  0  0
 14 15  1  0  0  0
 15 16  2  0  0  0
 15 31  1  0  0  0
 16 17  1  0  0  0
 16 54  1  0  0  0
 17 18  2  0  0  0
 17 37  1  0  0  0
 18 19  1  0  0  0
 18 20  1  0  0  0
 19 38  1  0  0  0
 20 24  1  0  0  0
 20 21  2  0  0  0
 21 22  1  0  0  0
 21 39  1  0  0  0
 22 23  1  0  0  0
 22 25  1  0  0  0
 23 24  2  0  0  0
 24 40  1  0  0  0
 25 30  1  0  0  0
 25 26  1  0  0  0
 25 41  1  0  0  0
 26 27  1  0  0  0
 26 42  1  0  0  0
 26 43  1  0  0  0
 27 28  1  0  0  0
 27 44  1  0  0  0
 27 45  1  0  0  0
 28 29  1  0  0  0
 28 46  1  0  0  0
 28 53  1  0  0  0
 29 30  1  0  0  0
 29 47  1  0  0  0
 29 48  1  0  0  0
 30 49  1  0  0  0
 30 50  1  0  0  0
 31 51  1  0  0  0
 31 52  1  0  0  0
M  CHG  2  16   1  28   1
M  END
> <s_m_source_file>
/Users/choderaj/github/choderalab/mcce-charges/mcce-charges.jchodera/epik_inhibitors/output/Crizotinib/Crizotinib-input.mol2

> <i_m_source_file_index>
1

> <r_lp_tautomer_probability>
0.999998096099721

> <r_epik_Ionization_Penalty>
  0.8605

> <r_epik_Ionization_Penalty_Charging>
  0.8605

> <r_epik_Ionization_Penalty_Neutral>
  0.0000

> <r_epik_State_Penalty>
  0.2830

> <i_epik_Tot_Q>
2

$$$$
3-[(1~{R})-1-(2,6-dichloro-3-fluoro-phenyl)ethoxy]-5-[1-(4-piperidyl)pyrazol-4-yl]pyridin-2-amine
                    3D
 Structure written by MMmdl.
 53 56  0  0  1  0            999 V2000
    7.2574   -5.0035   -2.4989 C   0  0  0  0  0  0
    5.7795   -4.9328   -2.8571 C   0  0  2  0  0  0
    5.2599   -4.2745   -2.1452 H   0  0  0  0  0  0
    5.1215   -6.2919   -2.8552 C   0  0  0  0  0  0
    5.0946   -7.0546   -4.0228 C   0  0  0  0  0  0
    4.4865   -8.3100   -4.0219 C   0  0  0  0  0  0
    3.9053   -8.8026   -2.8535 C   0  0  0  0  0  0
    3.9322   -8.0399   -1.6859 C   0  0  0  0  0  0
    4.5402   -6.7845   -1.6868 C   0  0  0  0  0  0
    4.5541   -5.8684   -0.2221 Cl  0  0  0  0  0  0
    3.3693   -8.5294   -0.5716 F   0  0  0  0  0  0
    5.8015   -6.4840   -5.4915 Cl  0  0  0  0  0  0
    5.6466   -4.3734   -4.1585 O   0  0  0  0  0  0
    4.9309   -3.2232   -4.2595 C   0  0  0  0  0  0
    5.4832   -2.0498   -4.7473 C   0  0  0  0  0  0
    4.8060   -0.8855   -4.8630 N   0  0  0  0  0  0
    3.5126   -0.9018   -4.4698 C   0  0  0  0  0  0
    2.8679   -2.0214   -3.9692 C   0  0  0  0  0  0
    3.5978   -3.2003   -3.8652 C   0  0  0  0  0  0
    1.4950   -1.9665   -3.5726 C   0  0  0  0  0  0
    0.9461   -2.7689   -2.5544 C   0  0  0  0  0  0
   -0.3557   -2.5395   -2.3625 N   0  0  0  0  0  0
   -0.6335   -1.5843   -3.2661 N   0  0  0  0  0  0
    0.4408   -1.2062   -4.0164 C   0  0  0  0  0  0
   -1.3475   -3.1104   -1.4453 C   0  0  0  0  0  0
   -1.8656   -2.0889   -0.4207 C   0  0  0  0  0  0
   -2.9116   -2.7200    0.4982 C   0  0  0  0  0  0
   -4.0137   -3.3062   -0.2655 N   0  3  0  0  0  0
   -3.5389   -4.3383   -1.1879 C   0  0  0  0  0  0
   -2.5206   -3.7777   -2.1805 C   0  0  0  0  0  0
    6.8427   -2.0723   -5.1481 N   0  0  0  0  0  0
    7.6873   -3.9911   -2.5146 H   0  0  0  0  0  0
    7.7820   -5.6360   -3.2301 H   0  0  0  0  0  0
    7.3707   -5.4345   -1.4932 H   0  0  0  0  0  0
    4.4566   -8.9171   -4.9234 H   0  0  0  0  0  0
    3.4321   -9.7802   -2.8524 H   0  0  0  0  0  0
    2.9990    0.0494   -4.5767 H   0  0  0  0  0  0
    3.1354   -4.1057   -3.4780 H   0  0  0  0  0  0
    1.4552   -3.5097   -1.9501 H   0  0  0  0  0  0
    0.3372   -0.4467   -4.7759 H   0  0  0  0  0  0
   -0.7641   -3.8820   -0.9216 H   0  0  0  0  0  0
   -1.0273   -1.7281    0.1934 H   0  0  0  0  0  0
   -2.3250   -1.2404   -0.9489 H   0  0  0  0  0  0
   -2.4421   -3.5144    1.0969 H   0  0  0  0  0  0
   -3.3232   -1.9507    1.1681 H   0  0  0  0  0  0
   -4.7364   -3.7637    0.4261 H   0  0  0  0  0  0
   -3.0596   -5.1475   -0.6174 H   0  0  0  0  0  0
   -4.3903   -4.7436   -1.7544 H   0  0  0  0  0  0
   -3.0218   -3.0363   -2.8202 H   0  0  0  0  0  0
   -2.1422   -4.6024   -2.8023 H   0  0  0  0  0  0
    7.3156   -1.1599   -5.5404 H   0  0  0  0  0  0
    7.4248   -3.0021   -5.0668 H   0  0  0  0  0  0
   -4.5133   -2.5200   -0.8506 H   0  0  0  0  0  0
  1  2  1  0  0  0
  1 32  1  0  0  0
  1 33  1  0  0  0
  1 34  1  0  0  0
  2  3  1  0  0  0
  2  4  1  0  0  0
  2 13  1  0  0  0
  4  9  2  0  0  0
  4  5  1  0  0  0
  5  6  2  0  0  0
  5 12  1  0  0  0
  6  7  1  0  0  0
  6 35  1  0  0  0
  7  8  2  0  0  0
  7 36  1  0  0  0
  8  9  1  0  0  0
  8 11  1  0  0  0
  9 10  1  0  0  0
 13 14  1  0  0  0
 14 19  2  0  0  0
 14 15  1  0  0  0
 15 16  2  0  0  0
 15 31  1  0  0  0
 16 17  1  0  0  0
 17 18  2  0  0  0
 17 37  1  0  0  0
 18 19  1  0  0  0
 18 20  1  0  0  0
 19 38  1  0  0  0
 20 24  1  0  0  0
 20 21  2  0  0  0
 21 22  1  0  0  0
 21 39  1  0  0  0
 22 23  1  0  0  0
 22 25  1  0  0  0
 23 24  2  0  0  0
 24 40  1  0  0  0
 25 30  1  0  0  0
 25 26  1  0  0  0
 25 41  1  0  0  0
 26 27  1  0  0  0
 26 42  1  0  0  0
 26 43  1  0  0  0
 27 28  1  0  0  0
 27 44  1  0  0  0
 27 45  1  0  0  0
 28 29  1  0  0  0
 28 46  1  0  0  0
 28 53  1  0  0  0
 29 30  1  0  0  0
 29 47  1  0  0  0
 29 48  1  0  0  0
 30 49  1  0  0  0
 30 50  1  0  0  0
 31 51  1  0  0  0
 31 52  1  0  0  0
M  CHG  1  28   1
M  END
> <s_m_source_file>
/Users/choderaj/github/choderalab/mcce-charges/mcce-charges.jchodera/epik_inhibitors/output/Crizotinib/Crizotinib-input.mol2

> <i_m_source_file_index>
1

> <r_lp_tautomer_probability>
0.999997869569756

> <r_epik_Ionization_Penalty>
  0.1656

> <r_epik_Ionization_Penalty_Charging>
  0.0055

> <r_epik_Ionization_Penalty_Neutral>
  0.1601

> <r_epik_State_Penalty>
  0.5846

> <i_epik_Tot_Q>
1

$$$$
3-[(1~{R})-1-(2,6-dichloro-3-fluoro-phenyl)ethoxy]-5-[1-(4-piperidyl)pyrazol-4-yl]pyridin-2-amine
                    3D
 Structure written by MMmdl.
 52 55  0  0  1  0            999 V2000
    7.2574   -5.0035   -2.4989 C   0  0  0  0  0  0
    5.7795   -4.9328   -2.8571 C   0  0  2  0  0  0
    5.2599   -4.2745   -2.1452 H   0  0  0  0  0  0
    5.1215   -6.2919   -2.8552 C   0  0  0  0  0  0
    5.0946   -7.0546   -4.0228 C   0  0  0  0  0  0
    4.4865   -8.3100   -4.0219 C   0  0  0  0  0  0
    3.9053   -8.8026   -2.8535 C   0  0  0  0  0  0
    3.9322   -8.0399   -1.6859 C   0  0  0  0  0  0
    4.5402   -6.7845   -1.6868 C   0  0  0  0  0  0
    4.5541   -5.8684   -0.2221 Cl  0  0  0  0  0  0
    3.3693   -8.5294   -0.5716 F   0  0  0  0  0  0
    5.8015   -6.4840   -5.4915 Cl  0  0  0  0  0  0
    5.6466   -4.3734   -4.1585 O   0  0  0  0  0  0
    4.9309   -3.2232   -4.2595 C   0  0  0  0  0  0
    5.4832   -2.0498   -4.7473 C   0  0  0  0  0  0
    4.8060   -0.8855   -4.8630 N   0  0  0  0  0  0
    3.5126   -0.9018   -4.4698 C   0  0  0  0  0  0
    2.8679   -2.0214   -3.9692 C   0  0  0  0  0  0
    3.5978   -3.2003   -3.8652 C   0  0  0  0  0  0
    1.4950   -1.9665   -3.5726 C   0  0  0  0  0  0
    0.9461   -2.7689   -2.5544 C   0  0  0  0  0  0
   -0.3557   -2.5395   -2.3625 N   0  0  0  0  0  0
   -0.6335   -1.5843   -3.2661 N   0  0  0  0  0  0
    0.4408   -1.2062   -4.0164 C   0  0  0  0  0  0
   -1.3475   -3.1104   -1.4453 C   0  0  0  0  0  0
   -1.8656   -2.0889   -0.4207 C   0  0  0  0  0  0
   -2.9116   -2.7200    0.4982 C   0  0  0  0  0  0
   -4.0137   -3.3062   -0.2655 N   0  0  0  0  0  0
   -3.5389   -4.3383   -1.1879 C   0  0  0  0  0  0
   -2.5206   -3.7777   -2.1805 C   0  0  0  0  0  0
    6.8427   -2.0723   -5.1481 N   0  0  0  0  0  0
    7.6873   -3.9911   -2.5146 H   0  0  0  0  0  0
    7.7820   -5.6360   -3.2301 H   0  0  0  0  0  0
    7.3707   -5.4345   -1.4932 H   0  0  0  0  0  0
    4.4566   -8.9171   -4.9234 H   0  0  0  0  0  0
    3.4321   -9.7802   -2.8524 H   0  0  0  0  0  0
    2.9990    0.0494   -4.5767 H   0  0  0  0  0  0
    3.1354   -4.1057   -3.4780 H   0  0  0  0  0  0
    1.4552   -3.5097   -1.9501 H   0  0  0  0  0  0
    0.3372   -0.4467   -4.7759 H   0  0  0  0  0  0
   -0.7641   -3.8820   -0.9216 H   0  0  0  0  0  0
   -1.0273   -1.7281    0.1934 H   0  0  0  0  0  0
   -2.3250   -1.2404   -0.9489 H   0  0  0  0  0  0
   -2.4421   -3.5144    1.0969 H   0  0  0  0  0  0
   -3.3232   -1.9507    1.1681 H   0  0  0  0  0  0
   -4.7364   -3.7637    0.4261 H   0  0  0  0  0  0
   -3.0596   -5.1475   -0.6174 H   0  0  0  0  0  0
   -4.3903   -4.7436   -1.7544 H   0  0  0  0  0  0
   -3.0218   -3.0363   -2.8202 H   0  0  0  0  0  0
   -2.1422   -4.6024   -2.8023 H   0  0  0  0  0  0
    7.3156   -1.1599   -5.5404 H   0  0  0  0  0  0
    7.4248   -3.0021   -5.0668 H   0  0  0  0  0  0
  1  2  1  0  0  0
  1 32  1  0  0  0
  1 33  1  0  0  0
  1 34  1  0  0  0
  2  3  1  0  0  0
  2  4  1  0  0  0
  2 13  1  0  0  0
  4  9  2  0  0  0
  4  5  1  0  0  0
  5  6  2  0  0  0
  5 12  1  0  0  0
  6  7  1  0  0  0
  6 35  1  0  0  0
  7  8  2  0  0  0
  7 36  1  0  0  0
  8  9  1  0  0  0
  8 11  1  0  0  0
  9 10  1  0  0  0
 13 14  1  0  0  0
 14 19  2  0  0  0
 14 15  1  0  0  0
 15 16  2  0  0  0
 15 31  1  0  0  0
 16 17  1  0  0  0
 17 18  2  0  0  0
 17 37  1  0  0  0
 18 19  1  0  0  0
 18 20  1  0  0  0
 19 38  1  0  0  0
 20 24  1  0  0  0
 20 21  2  0  0  0
 21 22  1  0  0  0
 21 39  1  0  0  0
 22 23  1  0  0  0
 22 25  1  0  0  0
 23 24  2  0  0  0
 24 40  1  0  0  0
 25 30  1  0  0  0
 25 26  1  0  0  0
 25 41  1  0  0  0
 26 27  1  0  0  0
 26 42  1  0  0  0
 26 43  1  0  0  0
 27 28  1  0  0  0
 27 44  1  0  0  0
 27 45  1  0  0  0
 28 29  1  0  0  0
 28 46  1  0  0  0
 29 30  1  0  0  0
 29 47  1  0  0  0
 29 48  1  0  0  0
 30 49  1  0  0  0
 30 50  1  0  0  0
 31 51  1  0  0  0
 31 52  1  0  0  0
M  END
> <s_m_source_file>
/Users/choderaj/github/choderalab/mcce-charges/mcce-charges.jchodera/epik_inhibitors/output/Crizotinib/Crizotinib-input.mol2

> <i_m_source_file_index>
1

> <r_lp_tautomer_probability>
0.999997869569756

> <r_epik_Ionization_Penalty>
  2.9358

> <r_epik_Ionization_Penalty_Charging>
  0.0000

> <r_epik_Ionization_Penalty_Neutral>
  2.9358

> <r_epik_State_Penalty>
  3.1925

> <i_epik_Tot_Q>
0

$$$$
3-[(1~{R})-1-(2,6-dichloro-3-fluoro-phenyl)ethoxy]-5-[1-(4-piperidyl)pyrazol-4-yl]pyridin-2-amine
                    3D
 Structure written by MMmdl.
 53 56  0  0  1  0            999 V2000
    7.2574   -5.0035   -2.4989 C   0  0  0  0  0  0
    5.7795   -4.9328   -2.8571 C   0  0  2  0  0  0
    5.2599   -4.2745   -2.1452 H   0  0  0  0  0  0
    5.1215   -6.2919   -2.8552 C   0  0  0  0  0  0
    5.0946   -7.0546   -4.0228 C   0  0  0  0  0  0
    4.4865   -8.3100   -4.0219 C   0  0  0  0  0  0
    3.9053   -8.8026   -2.8535 C   0  0  0  0  0  0
    3.9322   -8.0399   -1.6859 C   0  0  0  0  0  0
    4.5402   -6.7845   -1.6868 C   0  0  0  0  0  0
    4.5541   -5.8684   -0.2221 Cl  0  0  0  0  0  0
    3.3693   -8.5294   -0.5716 F   0  0  0  0  0  0
    5.8015   -6.4840   -5.4915 Cl  0  0  0  0  0  0
    5.6466   -4.3734   -4.1585 O   0  0  0  0  0  0
    4.9309   -3.2232   -4.2595 C   0  0  0  0  0  0
    5.4832   -2.0498   -4.7473 C   0  0  0  0  0  0
    4.8060   -0.8855   -4.8630 N   0  3  0  0  0  0
    3.5126   -0.9018   -4.4698 C   0  0  0  0  0  0
    2.8679   -2.0214   -3.9692 C   0  0  0  0  0  0
    3.5978   -3.2003   -3.8652 C   0  0  0  0  0  0
    1.4950   -1.9665   -3.5726 C   0  0  0  0  0  0
    0.9461   -2.7689   -2.5544 C   0  0  0  0  0  0
   -0.3557   -2.5395   -2.3625 N   0  0  0  0  0  0
   -0.6335   -1.5843   -3.2661 N   0  0  0  0  0  0
    0.4408   -1.2062   -4.0164 C   0  0  0  0  0  0
   -1.3475   -3.1104   -1.4453 C   0  0  0  0  0  0
   -1.8656   -2.0889   -0.4207 C   0  0  0  0  0  0
   -2.9116   -2.7200    0.4982 C   0  0  0  0  0  0
   -4.0137   -3.3062   -0.2655 N   0  0  0  0  0  0
   -3.5389   -4.3383   -1.1879 C   0  0  0  0  0  0
   -2.5206   -3.7777   -2.1805 C   0  0  0  0  0  0
    6.8427   -2.0723   -5.1481 N   0  0  0  0  0  0
    7.6873   -3.9911   -2.5146 H   0  0  0  0  0  0
    7.7820   -5.6360   -3.2301 H   0  0  0  0  0  0
    7.3707   -5.4345   -1.4932 H   0  0  0  0  0  0
    4.4566   -8.9171   -4.9234 H   0  0  0  0  0  0
    3.4321   -9.7802   -2.8524 H   0  0  0  0  0  0
    2.9990    0.0494   -4.5767 H   0  0  0  0  0  0
    3.1354   -4.1057   -3.4780 H   0  0  0  0  0  0
    1.4552   -3.5097   -1.9501 H   0  0  0  0  0  0
    0.3372   -0.4467   -4.7759 H   0  0  0  0  0  0
   -0.7641   -3.8820   -0.9216 H   0  0  0  0  0  0
   -1.0273   -1.7281    0.1934 H   0  0  0  0  0  0
   -2.3250   -1.2404   -0.9489 H   0  0  0  0  0  0
   -2.4421   -3.5144    1.0969 H   0  0  0  0  0  0
   -3.3232   -1.9507    1.1681 H   0  0  0  0  0  0
   -4.7364   -3.7637    0.4261 H   0  0  0  0  0  0
   -3.0596   -5.1475   -0.6174 H   0  0  0  0  0  0
   -4.3903   -4.7436   -1.7544 H   0  0  0  0  0  0
   -3.0218   -3.0363   -2.8202 H   0  0  0  0  0  0
   -2.1422   -4.6024   -2.8023 H   0  0  0  0  0  0
    7.3156   -1.1599   -5.5404 H   0  0  0  0  0  0
    7.4248   -3.0021   -5.0668 H   0  0  0  0  0  0
    5.3112    0.0075   -5.2597 H   0  0  0  0  0  0
  1  2  1  0  0  0
  1 32  1  0  0  0
  1 33  1  0  0  0
  1 34  1  0  0  0
  2  3  1  0  0  0
  2  4  1  0  0  0
  2 13  1  0  0  0
  4  9  2  0  0  0
  4  5  1  0  0  0
  5  6  2  0  0  0
  5 12  1  0  0  0
  6  7  1  0  0  0
  6 35  1  0  0  0
  7  8  2  0  0  0
  7 36  1  0  0  0
  8  9  1  0  0  0
  8 11  1  0  0  0
  9 10  1  0  0  0
 13 14  1  0  0  0
 14 19  2  0  0  0
 14 15  1  0  0  0
 15 16  2  0  0  0
 15 31  1  0  0  0
 16 17  1  0  0  0
 16 53  1  0  0  0
 17 18  2  0  0  0
 17 37  1  0  0  0
 18 19  1  0  0  0
 18 20  1  0  0  0
 19 38  1  0  0  0
 20 24  1  0  0  0
 20 21  2  0  0  0
 21 22  1  0  0  0
 21 39  1  0  0  0
 22 23  1  0  0  0
 22 25  1  0  0  0
 23 24  2  0  0  0
 24 40  1  0  0  0
 25 30  1  0  0  0
 25 26  1  0  0  0
 25 41  1  0  0  0
 26 27  1  0  0  0
 26 42  1  0  0  0
 26 43  1  0  0  0
 27 28  1  0  0  0
 27 44  1  0  0  0
 27 45  1  0  0  0
 28 29  1  0  0  0
 28 46  1  0  0  0
 29 30  1  0  0  0
 29 47  1  0  0  0
 29 48  1  0  0  0
 30 49  1  0  0  0
 30 50  1  0  0  0
 31 51  1  0  0  0
 31 52  1  0  0  0
M  CHG  1  16   1
M  END
> <s_m_source_file>
/Users/choderaj/github/choderalab/mcce-charges/mcce-charges.jchodera/epik_inhibitors/output/Crizotinib/Crizotinib-input.mol2

> <i_m_source_file_index>
1

> <r_epik_Ionization_Penalty>
  3.6305

> <r_epik_Ionization_Penalty_Charging>
  0.8550

> <r_epik_Ionization_Penalty_Neutral>
  2.7755

> <r_epik_State_Penalty>
  3.5867

> <i_epik_Tot_Q>
1

$$$$
