@<TRIPOS>MOLECULE
3-[(1~{R})-1-(2,6-dichloro-3-fluoro-phenyl)ethoxy]-5-[1-(4-piperidyl)pyrazol-4-yl]pyridin-2-amine
53   56    1
SMALL
USER_CHARGES


@<TRIPOS>ATOM
      1 C1          7.2574   -5.0035   -2.4989 C.3       1 CRI        -0.1301 
      2 C2          5.7795   -4.9328   -2.8571 C.3       1 CRI         0.1821 
      3 H1          5.2599   -4.2745   -2.1452 H         1 CRI         0.0710 
      4 C3          5.1215   -6.2919   -2.8552 C.ar      1 CRI        -0.0373 
      5 C4          5.0946   -7.0546   -4.0228 C.ar      1 CRI         0.0359 
      6 C5          4.4865   -8.3100   -4.0219 C.ar      1 CRI        -0.1065 
      7 C6          3.9053   -8.8026   -2.8535 C.ar      1 CRI        -0.1445 
      8 C7          3.9322   -8.0399   -1.6859 C.ar      1 CRI         0.1329 
      9 C8          4.5402   -6.7845   -1.6868 C.ar      1 CRI        -0.0076 
     10 Cl1         4.5541   -5.8684   -0.2221 Cl        1 CRI        -0.0576 
     11 F1          3.3693   -8.5294   -0.5716 F         1 CRI        -0.1200 
     12 Cl2         5.8015   -6.4840   -5.4915 Cl        1 CRI        -0.0784 
     13 O1          5.6466   -4.3734   -4.1585 O.3       1 CRI        -0.3269 
     14 C9          4.9309   -3.2232   -4.2595 C.ar      1 CRI        -0.0524 
     15 C10         5.4832   -2.0498   -4.7473 C.ar      1 CRI         0.6229 
     16 N1          4.8060   -0.8855   -4.8630 N.ar      1 CRI        -0.7111 
     17 C11         3.5126   -0.9018   -4.4698 C.ar      1 CRI         0.4198 
     18 C12         2.8679   -2.0214   -3.9692 C.ar      1 CRI        -0.1327 
     19 C13         3.5978   -3.2003   -3.8652 C.ar      1 CRI        -0.1135 
     20 C14         1.4950   -1.9665   -3.5726 C.ar      1 CRI        -0.2022 
     21 C15         0.9461   -2.7689   -2.5544 C.ar      1 CRI        -0.1366 
     22 N2         -0.3557   -2.5395   -2.3625 N.pl3     1 CRI         0.0909 
     23 N3         -0.6335   -1.5843   -3.2661 N.2       1 CRI        -0.5022 
     24 C16         0.4408   -1.2062   -4.0164 C.ar      1 CRI         0.2996 
     25 C17        -1.3475   -3.1104   -1.4453 C.3       1 CRI         0.0752 
     26 C18        -1.8656   -2.0889   -0.4207 C.3       1 CRI        -0.0883 
     27 C19        -2.9116   -2.7200    0.4982 C.3       1 CRI         0.1632 
     28 N4         -4.0137   -3.3062   -0.2655 N.4       1 CRI        -0.8201 
     29 C20        -3.5389   -4.3383   -1.1879 C.3       1 CRI         0.1632 
     30 C21        -2.5206   -3.7777   -2.1805 C.3       1 CRI        -0.0883 
     31 N5          6.8427   -2.0723   -5.1481 N.pl3     1 CRI        -0.9136 
     32 H2          7.6873   -3.9911   -2.5146 H         1 CRI         0.0562 
     33 H3          7.7820   -5.6360   -3.2301 H         1 CRI         0.0562 
     34 H4          7.3707   -5.4345   -1.4932 H         1 CRI         0.0562 
     35 H5          4.4566   -8.9171   -4.9234 H         1 CRI         0.1580 
     36 H6          3.4321   -9.7802   -2.8524 H         1 CRI         0.1617 
     37 H7          2.9990    0.0494   -4.5767 H         1 CRI         0.0209 
     38 H8          3.1354   -4.1057   -3.4780 H         1 CRI         0.1466 
     39 H9          1.4552   -3.5097   -1.9501 H         1 CRI         0.1775 
     40 H10         0.3372   -0.4467   -4.7759 H         1 CRI         0.0414 
     41 H11        -0.7641   -3.8820   -0.9216 H         1 CRI         0.0542 
     42 H12        -1.0273   -1.7281    0.1934 H         1 CRI         0.0668 
     43 H13        -2.3250   -1.2404   -0.9489 H         1 CRI         0.0668 
     44 H14        -2.4421   -3.5144    1.0969 H         1 CRI         0.0312 
     45 H15        -3.3232   -1.9507    1.1681 H         1 CRI         0.0312 
     46 H16        -4.7364   -3.7637    0.4261 H         1 CRI         0.3684 
     47 H17        -3.0596   -5.1475   -0.6174 H         1 CRI         0.0312 
     48 H18        -4.3903   -4.7436   -1.7544 H         1 CRI         0.0312 
     49 H19        -3.0218   -3.0363   -2.8202 H         1 CRI         0.0668 
     50 H20        -2.1422   -4.6024   -2.8023 H         1 CRI         0.0668 
     51 H21         7.3156   -1.1599   -5.5404 H         1 CRI         0.4117 
     52 H22         7.4248   -3.0021   -5.0668 H         1 CRI         0.4117 
     53 H53        -4.5133   -2.5200   -0.8506 H         1 CRI         0.0000 
@<TRIPOS>BOND
     1    1    2 1    
     2    1   32 1    
     3    1   33 1    
     4    1   34 1    
     5    2    3 1    
     6    2    4 1    
     7    2   13 1    
     8    4    9 ar   
     9    4    5 ar   
    10    5    6 ar   
    11    5   12 1    
    12    6    7 ar   
    13    6   35 1    
    14    7    8 ar   
    15    7   36 1    
    16    8    9 ar   
    17    8   11 1    
    18    9   10 1    
    19   13   14 1    
    20   14   19 ar   
    21   14   15 ar   
    22   15   16 ar   
    23   15   31 1    
    24   16   17 ar   
    25   17   18 ar   
    26   17   37 1    
    27   18   19 ar   
    28   18   20 1    
    29   19   38 1    
    30   20   24 ar   
    31   20   21 ar   
    32   21   22 ar   
    33   21   39 1    
    34   22   23 ar   
    35   22   25 1    
    36   23   24 ar   
    37   24   40 1    
    38   25   30 1    
    39   25   26 1    
    40   25   41 1    
    41   26   27 1    
    42   26   42 1    
    43   26   43 1    
    44   27   28 1    
    45   27   44 1    
    46   27   45 1    
    47   28   29 1    
    48   28   46 1    
    49   28   53 1    
    50   29   30 1    
    51   29   47 1    
    52   29   48 1    
    53   30   49 1    
    54   30   50 1    
    55   31   51 1    
    56   31   52 1    
@<TRIPOS>SUBSTRUCTURE
     1 CRI         1 GROUP             0       ****    0 ROOT    
@<TRIPOS>MOLECULE
3-[(1~{R})-1-(2,6-dichloro-3-fluoro-phenyl)ethoxy]-5-[1-(4-piperidyl)pyrazol-4-yl]pyridin-2-amine
54   57    1
SMALL
USER_CHARGES


@<TRIPOS>ATOM
      1 C1          7.2574   -5.0035   -2.4989 C.3       1 CRI        -0.1301 
      2 C2          5.7795   -4.9328   -2.8571 C.3       1 CRI         0.1821 
      3 H1          5.2599   -4.2745   -2.1452 H         1 CRI         0.0710 
      4 C3          5.1215   -6.2919   -2.8552 C.ar      1 CRI        -0.0373 
      5 C4          5.0946   -7.0546   -4.0228 C.ar      1 CRI         0.0359 
      6 C5          4.4865   -8.3100   -4.0219 C.ar      1 CRI        -0.1065 
      7 C6          3.9053   -8.8026   -2.8535 C.ar      1 CRI        -0.1445 
      8 C7          3.9322   -8.0399   -1.6859 C.ar      1 CRI         0.1329 
      9 C8          4.5402   -6.7845   -1.6868 C.ar      1 CRI        -0.0076 
     10 Cl1         4.5541   -5.8684   -0.2221 Cl        1 CRI        -0.0576 
     11 F1          3.3693   -8.5294   -0.5716 F         1 CRI        -0.1200 
     12 Cl2         5.8015   -6.4840   -5.4915 Cl        1 CRI        -0.0784 
     13 O1          5.6466   -4.3734   -4.1585 O.3       1 CRI        -0.3269 
     14 C9          4.9309   -3.2232   -4.2595 C.ar      1 CRI        -0.0524 
     15 C10         5.4832   -2.0498   -4.7473 C.ar      1 CRI         0.6229 
     16 N1          4.8060   -0.8855   -4.8630 N.pl3     1 CRI        -0.7111 
     17 C11         3.5126   -0.9018   -4.4698 C.ar      1 CRI         0.4198 
     18 C12         2.8679   -2.0214   -3.9692 C.ar      1 CRI        -0.1327 
     19 C13         3.5978   -3.2003   -3.8652 C.ar      1 CRI        -0.1135 
     20 C14         1.4950   -1.9665   -3.5726 C.ar      1 CRI        -0.2022 
     21 C15         0.9461   -2.7689   -2.5544 C.ar      1 CRI        -0.1366 
     22 N2         -0.3557   -2.5395   -2.3625 N.pl3     1 CRI         0.0909 
     23 N3         -0.6335   -1.5843   -3.2661 N.2       1 CRI        -0.5022 
     24 C16         0.4408   -1.2062   -4.0164 C.ar      1 CRI         0.2996 
     25 C17        -1.3475   -3.1104   -1.4453 C.3       1 CRI         0.0752 
     26 C18        -1.8656   -2.0889   -0.4207 C.3       1 CRI        -0.0883 
     27 C19        -2.9116   -2.7200    0.4982 C.3       1 CRI         0.1632 
     28 N4         -4.0137   -3.3062   -0.2655 N.4       1 CRI        -0.8201 
     29 C20        -3.5389   -4.3383   -1.1879 C.3       1 CRI         0.1632 
     30 C21        -2.5206   -3.7777   -2.1805 C.3       1 CRI        -0.0883 
     31 N5          6.8427   -2.0723   -5.1481 N.pl3     1 CRI        -0.9136 
     32 H2          7.6873   -3.9911   -2.5146 H         1 CRI         0.0562 
     33 H3          7.7820   -5.6360   -3.2301 H         1 CRI         0.0562 
     34 H4          7.3707   -5.4345   -1.4932 H         1 CRI         0.0562 
     35 H5          4.4566   -8.9171   -4.9234 H         1 CRI         0.1580 
     36 H6          3.4321   -9.7802   -2.8524 H         1 CRI         0.1617 
     37 H7          2.9990    0.0494   -4.5767 H         1 CRI         0.0209 
     38 H8          3.1354   -4.1057   -3.4780 H         1 CRI         0.1466 
     39 H9          1.4552   -3.5097   -1.9501 H         1 CRI         0.1775 
     40 H10         0.3372   -0.4467   -4.7759 H         1 CRI         0.0414 
     41 H11        -0.7641   -3.8820   -0.9216 H         1 CRI         0.0542 
     42 H12        -1.0273   -1.7281    0.1934 H         1 CRI         0.0668 
     43 H13        -2.3250   -1.2404   -0.9489 H         1 CRI         0.0668 
     44 H14        -2.4421   -3.5144    1.0969 H         1 CRI         0.0312 
     45 H15        -3.3232   -1.9507    1.1681 H         1 CRI         0.0312 
     46 H16        -4.7364   -3.7637    0.4261 H         1 CRI         0.3684 
     47 H17        -3.0596   -5.1475   -0.6174 H         1 CRI         0.0312 
     48 H18        -4.3903   -4.7436   -1.7544 H         1 CRI         0.0312 
     49 H19        -3.0218   -3.0363   -2.8202 H         1 CRI         0.0668 
     50 H20        -2.1422   -4.6024   -2.8023 H         1 CRI         0.0668 
     51 H21         7.3156   -1.1599   -5.5404 H         1 CRI         0.4117 
     52 H22         7.4248   -3.0021   -5.0668 H         1 CRI         0.4117 
     53 H53        -4.5133   -2.5200   -0.8506 H         1 CRI         0.0000 
     54 H54         5.3112    0.0075   -5.2597 H         1 CRI         0.0000 
@<TRIPOS>BOND
     1    1    2 1    
     2    1   32 1    
     3    1   33 1    
     4    1   34 1    
     5    2    3 1    
     6    2    4 1    
     7    2   13 1    
     8    4    9 ar   
     9    4    5 ar   
    10    5    6 ar   
    11    5   12 1    
    12    6    7 ar   
    13    6   35 1    
    14    7    8 ar   
    15    7   36 1    
    16    8    9 ar   
    17    8   11 1    
    18    9   10 1    
    19   13   14 1    
    20   14   19 ar   
    21   14   15 ar   
    22   15   16 ar   
    23   15   31 1    
    24   16   17 ar   
    25   16   54 1    
    26   17   18 ar   
    27   17   37 1    
    28   18   19 ar   
    29   18   20 1    
    30   19   38 1    
    31   20   24 ar   
    32   20   21 ar   
    33   21   22 ar   
    34   21   39 1    
    35   22   23 ar   
    36   22   25 1    
    37   23   24 ar   
    38   24   40 1    
    39   25   30 1    
    40   25   26 1    
    41   25   41 1    
    42   26   27 1    
    43   26   42 1    
    44   26   43 1    
    45   27   28 1    
    46   27   44 1    
    47   27   45 1    
    48   28   29 1    
    49   28   46 1    
    50   28   53 1    
    51   29   30 1    
    52   29   47 1    
    53   29   48 1    
    54   30   49 1    
    55   30   50 1    
    56   31   51 1    
    57   31   52 1    
@<TRIPOS>SUBSTRUCTURE
     1 CRI         1 GROUP             0       ****    0 ROOT    
@<TRIPOS>MOLECULE
3-[(1~{R})-1-(2,6-dichloro-3-fluoro-phenyl)ethoxy]-5-[1-(4-piperidyl)pyrazol-4-yl]pyridin-2-amine
52   55    1
SMALL
USER_CHARGES


@<TRIPOS>ATOM
      1 C1          7.2574   -5.0035   -2.4989 C.3       1 CRI        -0.1301 
      2 C2          5.7795   -4.9328   -2.8571 C.3       1 CRI         0.1821 
      3 H1          5.2599   -4.2745   -2.1452 H         1 CRI         0.0710 
      4 C3          5.1215   -6.2919   -2.8552 C.ar      1 CRI        -0.0373 
      5 C4          5.0946   -7.0546   -4.0228 C.ar      1 CRI         0.0359 
      6 C5          4.4865   -8.3100   -4.0219 C.ar      1 CRI        -0.1065 
      7 C6          3.9053   -8.8026   -2.8535 C.ar      1 CRI        -0.1445 
      8 C7          3.9322   -8.0399   -1.6859 C.ar      1 CRI         0.1329 
      9 C8          4.5402   -6.7845   -1.6868 C.ar      1 CRI        -0.0076 
     10 Cl1         4.5541   -5.8684   -0.2221 Cl        1 CRI        -0.0576 
     11 F1          3.3693   -8.5294   -0.5716 F         1 CRI        -0.1200 
     12 Cl2         5.8015   -6.4840   -5.4915 Cl        1 CRI        -0.0784 
     13 O1          5.6466   -4.3734   -4.1585 O.3       1 CRI        -0.3269 
     14 C9          4.9309   -3.2232   -4.2595 C.ar      1 CRI        -0.0524 
     15 C10         5.4832   -2.0498   -4.7473 C.ar      1 CRI         0.6229 
     16 N1          4.8060   -0.8855   -4.8630 N.ar      1 CRI        -0.7111 
     17 C11         3.5126   -0.9018   -4.4698 C.ar      1 CRI         0.4198 
     18 C12         2.8679   -2.0214   -3.9692 C.ar      1 CRI        -0.1327 
     19 C13         3.5978   -3.2003   -3.8652 C.ar      1 CRI        -0.1135 
     20 C14         1.4950   -1.9665   -3.5726 C.ar      1 CRI        -0.2022 
     21 C15         0.9461   -2.7689   -2.5544 C.ar      1 CRI        -0.1366 
     22 N2         -0.3557   -2.5395   -2.3625 N.pl3     1 CRI         0.0909 
     23 N3         -0.6335   -1.5843   -3.2661 N.2       1 CRI        -0.5022 
     24 C16         0.4408   -1.2062   -4.0164 C.ar      1 CRI         0.2996 
     25 C17        -1.3475   -3.1104   -1.4453 C.3       1 CRI         0.0752 
     26 C18        -1.8656   -2.0889   -0.4207 C.3       1 CRI        -0.0883 
     27 C19        -2.9116   -2.7200    0.4982 C.3       1 CRI         0.1632 
     28 N4         -4.0137   -3.3062   -0.2655 N.3       1 CRI        -0.8201 
     29 C20        -3.5389   -4.3383   -1.1879 C.3       1 CRI         0.1632 
     30 C21        -2.5206   -3.7777   -2.1805 C.3       1 CRI        -0.0883 
     31 N5          6.8427   -2.0723   -5.1481 N.pl3     1 CRI        -0.9136 
     32 H2          7.6873   -3.9911   -2.5146 H         1 CRI         0.0562 
     33 H3          7.7820   -5.6360   -3.2301 H         1 CRI         0.0562 
     34 H4          7.3707   -5.4345   -1.4932 H         1 CRI         0.0562 
     35 H5          4.4566   -8.9171   -4.9234 H         1 CRI         0.1580 
     36 H6          3.4321   -9.7802   -2.8524 H         1 CRI         0.1617 
     37 H7          2.9990    0.0494   -4.5767 H         1 CRI         0.0209 
     38 H8          3.1354   -4.1057   -3.4780 H         1 CRI         0.1466 
     39 H9          1.4552   -3.5097   -1.9501 H         1 CRI         0.1775 
     40 H10         0.3372   -0.4467   -4.7759 H         1 CRI         0.0414 
     41 H11        -0.7641   -3.8820   -0.9216 H         1 CRI         0.0542 
     42 H12        -1.0273   -1.7281    0.1934 H         1 CRI         0.0668 
     43 H13        -2.3250   -1.2404   -0.9489 H         1 CRI         0.0668 
     44 H14        -2.4421   -3.5144    1.0969 H         1 CRI         0.0312 
     45 H15        -3.3232   -1.9507    1.1681 H         1 CRI         0.0312 
     46 H16        -4.7364   -3.7637    0.4261 H         1 CRI         0.3684 
     47 H17        -3.0596   -5.1475   -0.6174 H         1 CRI         0.0312 
     48 H18        -4.3903   -4.7436   -1.7544 H         1 CRI         0.0312 
     49 H19        -3.0218   -3.0363   -2.8202 H         1 CRI         0.0668 
     50 H20        -2.1422   -4.6024   -2.8023 H         1 CRI         0.0668 
     51 H21         7.3156   -1.1599   -5.5404 H         1 CRI         0.4117 
     52 H22         7.4248   -3.0021   -5.0668 H         1 CRI         0.4117 
@<TRIPOS>BOND
     1    1    2 1    
     2    1   32 1    
     3    1   33 1    
     4    1   34 1    
     5    2    3 1    
     6    2    4 1    
     7    2   13 1    
     8    4    9 ar   
     9    4    5 ar   
    10    5    6 ar   
    11    5   12 1    
    12    6    7 ar   
    13    6   35 1    
    14    7    8 ar   
    15    7   36 1    
    16    8    9 ar   
    17    8   11 1    
    18    9   10 1    
    19   13   14 1    
    20   14   19 ar   
    21   14   15 ar   
    22   15   16 ar   
    23   15   31 1    
    24   16   17 ar   
    25   17   18 ar   
    26   17   37 1    
    27   18   19 ar   
    28   18   20 1    
    29   19   38 1    
    30   20   24 ar   
    31   20   21 ar   
    32   21   22 ar   
    33   21   39 1    
    34   22   23 ar   
    35   22   25 1    
    36   23   24 ar   
    37   24   40 1    
    38   25   30 1    
    39   25   26 1    
    40   25   41 1    
    41   26   27 1    
    42   26   42 1    
    43   26   43 1    
    44   27   28 1    
    45   27   44 1    
    46   27   45 1    
    47   28   29 1    
    48   28   46 1    
    49   29   30 1    
    50   29   47 1    
    51   29   48 1    
    52   30   49 1    
    53   30   50 1    
    54   31   51 1    
    55   31   52 1    
@<TRIPOS>SUBSTRUCTURE
     1 CRI         1 GROUP             0       ****    0 ROOT    
@<TRIPOS>MOLECULE
3-[(1~{R})-1-(2,6-dichloro-3-fluoro-phenyl)ethoxy]-5-[1-(4-piperidyl)pyrazol-4-yl]pyridin-2-amine
53   56    1
SMALL
USER_CHARGES


@<TRIPOS>ATOM
      1 C1          7.2574   -5.0035   -2.4989 C.3       1 CRI        -0.1301 
      2 C2          5.7795   -4.9328   -2.8571 C.3       1 CRI         0.1821 
      3 H1          5.2599   -4.2745   -2.1452 H         1 CRI         0.0710 
      4 C3          5.1215   -6.2919   -2.8552 C.ar      1 CRI        -0.0373 
      5 C4          5.0946   -7.0546   -4.0228 C.ar      1 CRI         0.0359 
      6 C5          4.4865   -8.3100   -4.0219 C.ar      1 CRI        -0.1065 
      7 C6          3.9053   -8.8026   -2.8535 C.ar      1 CRI        -0.1445 
      8 C7          3.9322   -8.0399   -1.6859 C.ar      1 CRI         0.1329 
      9 C8          4.5402   -6.7845   -1.6868 C.ar      1 CRI        -0.0076 
     10 Cl1         4.5541   -5.8684   -0.2221 Cl        1 CRI        -0.0576 
     11 F1          3.3693   -8.5294   -0.5716 F         1 CRI        -0.1200 
     12 Cl2         5.8015   -6.4840   -5.4915 Cl        1 CRI        -0.0784 
     13 O1          5.6466   -4.3734   -4.1585 O.3       1 CRI        -0.3269 
     14 C9          4.9309   -3.2232   -4.2595 C.ar      1 CRI        -0.0524 
     15 C10         5.4832   -2.0498   -4.7473 C.ar      1 CRI         0.6229 
     16 N1          4.8060   -0.8855   -4.8630 N.pl3     1 CRI        -0.7111 
     17 C11         3.5126   -0.9018   -4.4698 C.ar      1 CRI         0.4198 
     18 C12         2.8679   -2.0214   -3.9692 C.ar      1 CRI        -0.1327 
     19 C13         3.5978   -3.2003   -3.8652 C.ar      1 CRI        -0.1135 
     20 C14         1.4950   -1.9665   -3.5726 C.ar      1 CRI        -0.2022 
     21 C15         0.9461   -2.7689   -2.5544 C.ar      1 CRI        -0.1366 
     22 N2         -0.3557   -2.5395   -2.3625 N.pl3     1 CRI         0.0909 
     23 N3         -0.6335   -1.5843   -3.2661 N.2       1 CRI        -0.5022 
     24 C16         0.4408   -1.2062   -4.0164 C.ar      1 CRI         0.2996 
     25 C17        -1.3475   -3.1104   -1.4453 C.3       1 CRI         0.0752 
     26 C18        -1.8656   -2.0889   -0.4207 C.3       1 CRI        -0.0883 
     27 C19        -2.9116   -2.7200    0.4982 C.3       1 CRI         0.1632 
     28 N4         -4.0137   -3.3062   -0.2655 N.3       1 CRI        -0.8201 
     29 C20        -3.5389   -4.3383   -1.1879 C.3       1 CRI         0.1632 
     30 C21        -2.5206   -3.7777   -2.1805 C.3       1 CRI        -0.0883 
     31 N5          6.8427   -2.0723   -5.1481 N.pl3     1 CRI        -0.9136 
     32 H2          7.6873   -3.9911   -2.5146 H         1 CRI         0.0562 
     33 H3          7.7820   -5.6360   -3.2301 H         1 CRI         0.0562 
     34 H4          7.3707   -5.4345   -1.4932 H         1 CRI         0.0562 
     35 H5          4.4566   -8.9171   -4.9234 H         1 CRI         0.1580 
     36 H6          3.4321   -9.7802   -2.8524 H         1 CRI         0.1617 
     37 H7          2.9990    0.0494   -4.5767 H         1 CRI         0.0209 
     38 H8          3.1354   -4.1057   -3.4780 H         1 CRI         0.1466 
     39 H9          1.4552   -3.5097   -1.9501 H         1 CRI         0.1775 
     40 H10         0.3372   -0.4467   -4.7759 H         1 CRI         0.0414 
     41 H11        -0.7641   -3.8820   -0.9216 H         1 CRI         0.0542 
     42 H12        -1.0273   -1.7281    0.1934 H         1 CRI         0.0668 
     43 H13        -2.3250   -1.2404   -0.9489 H         1 CRI         0.0668 
     44 H14        -2.4421   -3.5144    1.0969 H         1 CRI         0.0312 
     45 H15        -3.3232   -1.9507    1.1681 H         1 CRI         0.0312 
     46 H16        -4.7364   -3.7637    0.4261 H         1 CRI         0.3684 
     47 H17        -3.0596   -5.1475   -0.6174 H         1 CRI         0.0312 
     48 H18        -4.3903   -4.7436   -1.7544 H         1 CRI         0.0312 
     49 H19        -3.0218   -3.0363   -2.8202 H         1 CRI         0.0668 
     50 H20        -2.1422   -4.6024   -2.8023 H         1 CRI         0.0668 
     51 H21         7.3156   -1.1599   -5.5404 H         1 CRI         0.4117 
     52 H22         7.4248   -3.0021   -5.0668 H         1 CRI         0.4117 
     53 H53         5.3112    0.0075   -5.2597 H         1 CRI         0.0000 
@<TRIPOS>BOND
     1    1    2 1    
     2    1   32 1    
     3    1   33 1    
     4    1   34 1    
     5    2    3 1    
     6    2    4 1    
     7    2   13 1    
     8    4    9 ar   
     9    4    5 ar   
    10    5    6 ar   
    11    5   12 1    
    12    6    7 ar   
    13    6   35 1    
    14    7    8 ar   
    15    7   36 1    
    16    8    9 ar   
    17    8   11 1    
    18    9   10 1    
    19   13   14 1    
    20   14   19 ar   
    21   14   15 ar   
    22   15   16 ar   
    23   15   31 1    
    24   16   17 ar   
    25   16   53 1    
    26   17   18 ar   
    27   17   37 1    
    28   18   19 ar   
    29   18   20 1    
    30   19   38 1    
    31   20   24 ar   
    32   20   21 ar   
    33   21   22 ar   
    34   21   39 1    
    35   22   23 ar   
    36   22   25 1    
    37   23   24 ar   
    38   24   40 1    
    39   25   30 1    
    40   25   26 1    
    41   25   41 1    
    42   26   27 1    
    43   26   42 1    
    44   26   43 1    
    45   27   28 1    
    46   27   44 1    
    47   27   45 1    
    48   28   29 1    
    49   28   46 1    
    50   29   30 1    
    51   29   47 1    
    52   29   48 1    
    53   30   49 1    
    54   30   50 1    
    55   31   51 1    
    56   31   52 1    
@<TRIPOS>SUBSTRUCTURE
     1 CRI         1 GROUP             0       ****    0 ROOT    
@<TRIPOS>MOLECULE
3-[(1~{R})-1-(2,6-dichloro-3-fluoro-phenyl)ethoxy]-5-[1-(4-piperidyl)pyrazol-4-yl]pyridin-2-amine
54   57    1
SMALL
USER_CHARGES


@<TRIPOS>ATOM
      1 C1          7.2574   -5.0035   -2.4989 C.3       1 CRI        -0.1301 
      2 C2          5.7795   -4.9328   -2.8571 C.3       1 CRI         0.1821 
      3 H1          5.2599   -4.2745   -2.1452 H         1 CRI         0.0710 
      4 C3          5.1215   -6.2919   -2.8552 C.ar      1 CRI        -0.0373 
      5 C4          5.0946   -7.0546   -4.0228 C.ar      1 CRI         0.0359 
      6 C5          4.4865   -8.3100   -4.0219 C.ar      1 CRI        -0.1065 
      7 C6          3.9053   -8.8026   -2.8535 C.ar      1 CRI        -0.1445 
      8 C7          3.9322   -8.0399   -1.6859 C.ar      1 CRI         0.1329 
      9 C8          4.5402   -6.7845   -1.6868 C.ar      1 CRI        -0.0076 
     10 Cl1         4.5541   -5.8684   -0.2221 Cl        1 CRI        -0.0576 
     11 F1          3.3693   -8.5294   -0.5716 F         1 CRI        -0.1200 
     12 Cl2         5.8015   -6.4840   -5.4915 Cl        1 CRI        -0.0784 
     13 O1          5.6466   -4.3734   -4.1585 O.3       1 CRI        -0.3269 
     14 C9          4.9309   -3.2232   -4.2595 C.ar      1 CRI        -0.0524 
     15 C10         5.4832   -2.0498   -4.7473 C.ar      1 CRI         0.6229 
     16 N1          4.8060   -0.8855   -4.8630 N.ar      1 CRI        -0.7111 
     17 C11         3.5126   -0.9018   -4.4698 C.ar      1 CRI         0.4198 
     18 C12         2.8679   -2.0214   -3.9692 C.ar      1 CRI        -0.1327 
     19 C13         3.5978   -3.2003   -3.8652 C.ar      1 CRI        -0.1135 
     20 C14         1.4950   -1.9665   -3.5726 C.ar      1 CRI        -0.2022 
     21 C15         0.9461   -2.7689   -2.5544 C.ar      1 CRI        -0.1366 
     22 N2         -0.3557   -2.5395   -2.3625 N.pl3     1 CRI         0.0909 
     23 N3         -0.6335   -1.5843   -3.2661 N.2       1 CRI        -0.5022 
     24 C16         0.4408   -1.2062   -4.0164 C.ar      1 CRI         0.2996 
     25 C17        -1.3475   -3.1104   -1.4453 C.3       1 CRI         0.0752 
     26 C18        -1.8656   -2.0889   -0.4207 C.3       1 CRI        -0.0883 
     27 C19        -2.9116   -2.7200    0.4982 C.3       1 CRI         0.1632 
     28 N4         -4.0137   -3.3062   -0.2655 N.4       1 CRI        -0.8201 
     29 C20        -3.5389   -4.3383   -1.1879 C.3       1 CRI         0.1632 
     30 C21        -2.5206   -3.7777   -2.1805 C.3       1 CRI        -0.0883 
     31 N5          6.8427   -2.0723   -5.1481 N.4       1 CRI        -0.9136 
     32 H2          7.6873   -3.9911   -2.5146 H         1 CRI         0.0562 
     33 H3          7.7820   -5.6360   -3.2301 H         1 CRI         0.0562 
     34 H4          7.3707   -5.4345   -1.4932 H         1 CRI         0.0562 
     35 H5          4.4566   -8.9171   -4.9234 H         1 CRI         0.1580 
     36 H6          3.4321   -9.7802   -2.8524 H         1 CRI         0.1617 
     37 H7          2.9990    0.0494   -4.5767 H         1 CRI         0.0209 
     38 H8          3.1354   -4.1057   -3.4780 H         1 CRI         0.1466 
     39 H9          1.4552   -3.5097   -1.9501 H         1 CRI         0.1775 
     40 H10         0.3372   -0.4467   -4.7759 H         1 CRI         0.0414 
     41 H11        -0.7641   -3.8820   -0.9216 H         1 CRI         0.0542 
     42 H12        -1.0273   -1.7281    0.1934 H         1 CRI         0.0668 
     43 H13        -2.3250   -1.2404   -0.9489 H         1 CRI         0.0668 
     44 H14        -2.4421   -3.5144    1.0969 H         1 CRI         0.0312 
     45 H15        -3.3232   -1.9507    1.1681 H         1 CRI         0.0312 
     46 H16        -4.7364   -3.7637    0.4261 H         1 CRI         0.3684 
     47 H17        -3.0596   -5.1475   -0.6174 H         1 CRI         0.0312 
     48 H18        -4.3903   -4.7436   -1.7544 H         1 CRI         0.0312 
     49 H19        -3.0218   -3.0363   -2.8202 H         1 CRI         0.0668 
     50 H20        -2.1422   -4.6024   -2.8023 H         1 CRI         0.0668 
     51 H21         7.1349   -1.0753   -5.5096 H         1 CRI         0.4117 
     52 H22         6.9749   -2.8082   -5.9549 H         1 CRI         0.4117 
     53 H53        -4.5133   -2.5200   -0.8506 H         1 CRI         0.0000 
     54 H54         7.4731   -2.3509   -4.2908 H         1 CRI         0.0000 
@<TRIPOS>BOND
     1    1    2 1    
     2    1   32 1    
     3    1   33 1    
     4    1   34 1    
     5    2    3 1    
     6    2    4 1    
     7    2   13 1    
     8    4    9 ar   
     9    4    5 ar   
    10    5    6 ar   
    11    5   12 1    
    12    6    7 ar   
    13    6   35 1    
    14    7    8 ar   
    15    7   36 1    
    16    8    9 ar   
    17    8   11 1    
    18    9   10 1    
    19   13   14 1    
    20   14   19 ar   
    21   14   15 ar   
    22   15   16 ar   
    23   15   31 1    
    24   16   17 ar   
    25   17   18 ar   
    26   17   37 1    
    27   18   19 ar   
    28   18   20 1    
    29   19   38 1    
    30   20   24 ar   
    31   20   21 ar   
    32   21   22 ar   
    33   21   39 1    
    34   22   23 ar   
    35   22   25 1    
    36   23   24 ar   
    37   24   40 1    
    38   25   30 1    
    39   25   26 1    
    40   25   41 1    
    41   26   27 1    
    42   26   42 1    
    43   26   43 1    
    44   27   28 1    
    45   27   44 1    
    46   27   45 1    
    47   28   29 1    
    48   28   46 1    
    49   28   53 1    
    50   29   30 1    
    51   29   47 1    
    52   29   48 1    
    53   30   49 1    
    54   30   50 1    
    55   31   51 1    
    56   31   52 1    
    57   31   54 1    
@<TRIPOS>SUBSTRUCTURE
     1 CRI         1 GROUP             0       ****    0 ROOT    
@<TRIPOS>MOLECULE
3-[(1~{R})-1-(2,6-dichloro-3-fluoro-phenyl)ethoxy]-5-[1-(4-piperidyl)pyrazol-4-yl]pyridin-2-amine
53   56    1
SMALL
USER_CHARGES


@<TRIPOS>ATOM
      1 C1          7.2574   -5.0035   -2.4989 C.3       1 CRI        -0.1301 
      2 C2          5.7795   -4.9328   -2.8571 C.3       1 CRI         0.1821 
      3 H1          5.2599   -4.2745   -2.1452 H         1 CRI         0.0710 
      4 C3          5.1215   -6.2919   -2.8552 C.ar      1 CRI        -0.0373 
      5 C4          5.0946   -7.0546   -4.0228 C.ar      1 CRI         0.0359 
      6 C5          4.4865   -8.3100   -4.0219 C.ar      1 CRI        -0.1065 
      7 C6          3.9053   -8.8026   -2.8535 C.ar      1 CRI        -0.1445 
      8 C7          3.9322   -8.0399   -1.6859 C.ar      1 CRI         0.1329 
      9 C8          4.5402   -6.7845   -1.6868 C.ar      1 CRI        -0.0076 
     10 Cl1         4.5541   -5.8684   -0.2221 Cl        1 CRI        -0.0576 
     11 F1          3.3693   -8.5294   -0.5716 F         1 CRI        -0.1200 
     12 Cl2         5.8015   -6.4840   -5.4915 Cl        1 CRI        -0.0784 
     13 O1          5.6466   -4.3734   -4.1585 O.3       1 CRI        -0.3269 
     14 C9          4.9309   -3.2232   -4.2595 C.ar      1 CRI        -0.0524 
     15 C10         5.4832   -2.0498   -4.7473 C.ar      1 CRI         0.6229 
     16 N1          4.8060   -0.8855   -4.8630 N.ar      1 CRI        -0.7111 
     17 C11         3.5126   -0.9018   -4.4698 C.ar      1 CRI         0.4198 
     18 C12         2.8679   -2.0214   -3.9692 C.ar      1 CRI        -0.1327 
     19 C13         3.5978   -3.2003   -3.8652 C.ar      1 CRI        -0.1135 
     20 C14         1.4950   -1.9665   -3.5726 C.ar      1 CRI        -0.2022 
     21 C15         0.9461   -2.7689   -2.5544 C.ar      1 CRI        -0.1366 
     22 N2         -0.3557   -2.5395   -2.3625 N.pl3     1 CRI         0.0909 
     23 N3         -0.6335   -1.5843   -3.2661 N.2       1 CRI        -0.5022 
     24 C16         0.4408   -1.2062   -4.0164 C.ar      1 CRI         0.2996 
     25 C17        -1.3475   -3.1104   -1.4453 C.3       1 CRI         0.0752 
     26 C18        -1.8656   -2.0889   -0.4207 C.3       1 CRI        -0.0883 
     27 C19        -2.9116   -2.7200    0.4982 C.3       1 CRI         0.1632 
     28 N4         -4.0137   -3.3062   -0.2655 N.3       1 CRI        -0.8201 
     29 C20        -3.5389   -4.3383   -1.1879 C.3       1 CRI         0.1632 
     30 C21        -2.5206   -3.7777   -2.1805 C.3       1 CRI        -0.0883 
     31 N5          6.8427   -2.0723   -5.1481 N.4       1 CRI        -0.9136 
     32 H2          7.6873   -3.9911   -2.5146 H         1 CRI         0.0562 
     33 H3          7.7820   -5.6360   -3.2301 H         1 CRI         0.0562 
     34 H4          7.3707   -5.4345   -1.4932 H         1 CRI         0.0562 
     35 H5          4.4566   -8.9171   -4.9234 H         1 CRI         0.1580 
     36 H6          3.4321   -9.7802   -2.8524 H         1 CRI         0.1617 
     37 H7          2.9990    0.0494   -4.5767 H         1 CRI         0.0209 
     38 H8          3.1354   -4.1057   -3.4780 H         1 CRI         0.1466 
     39 H9          1.4552   -3.5097   -1.9501 H         1 CRI         0.1775 
     40 H10         0.3372   -0.4467   -4.7759 H         1 CRI         0.0414 
     41 H11        -0.7641   -3.8820   -0.9216 H         1 CRI         0.0542 
     42 H12        -1.0273   -1.7281    0.1934 H         1 CRI         0.0668 
     43 H13        -2.3250   -1.2404   -0.9489 H         1 CRI         0.0668 
     44 H14        -2.4421   -3.5144    1.0969 H         1 CRI         0.0312 
     45 H15        -3.3232   -1.9507    1.1681 H         1 CRI         0.0312 
     46 H16        -4.7364   -3.7637    0.4261 H         1 CRI         0.3684 
     47 H17        -3.0596   -5.1475   -0.6174 H         1 CRI         0.0312 
     48 H18        -4.3903   -4.7436   -1.7544 H         1 CRI         0.0312 
     49 H19        -3.0218   -3.0363   -2.8202 H         1 CRI         0.0668 
     50 H20        -2.1422   -4.6024   -2.8023 H         1 CRI         0.0668 
     51 H21         7.1349   -1.0753   -5.5096 H         1 CRI         0.4117 
     52 H22         6.9749   -2.8082   -5.9549 H         1 CRI         0.4117 
     53 H53         7.4731   -2.3509   -4.2908 H         1 CRI         0.0000 
@<TRIPOS>BOND
     1    1    2 1    
     2    1   32 1    
     3    1   33 1    
     4    1   34 1    
     5    2    3 1    
     6    2    4 1    
     7    2   13 1    
     8    4    9 ar   
     9    4    5 ar   
    10    5    6 ar   
    11    5   12 1    
    12    6    7 ar   
    13    6   35 1    
    14    7    8 ar   
    15    7   36 1    
    16    8    9 ar   
    17    8   11 1    
    18    9   10 1    
    19   13   14 1    
    20   14   19 ar   
    21   14   15 ar   
    22   15   16 ar   
    23   15   31 1    
    24   16   17 ar   
    25   17   18 ar   
    26   17   37 1    
    27   18   19 ar   
    28   18   20 1    
    29   19   38 1    
    30   20   24 ar   
    31   20   21 ar   
    32   21   22 ar   
    33   21   39 1    
    34   22   23 ar   
    35   22   25 1    
    36   23   24 ar   
    37   24   40 1    
    38   25   30 1    
    39   25   26 1    
    40   25   41 1    
    41   26   27 1    
    42   26   42 1    
    43   26   43 1    
    44   27   28 1    
    45   27   44 1    
    46   27   45 1    
    47   28   29 1    
    48   28   46 1    
    49   29   30 1    
    50   29   47 1    
    51   29   48 1    
    52   30   49 1    
    53   30   50 1    
    54   31   51 1    
    55   31   52 1    
    56   31   53 1    
@<TRIPOS>SUBSTRUCTURE
     1 CRI         1 GROUP             0       ****    0 ROOT    
@<TRIPOS>MOLECULE
3-[(1~{R})-1-(2,6-dichloro-3-fluoro-phenyl)ethoxy]-5-[1-(4-piperidyl)pyrazol-4-yl]pyridin-2-amine
53   56    1
SMALL
USER_CHARGES


@<TRIPOS>ATOM
      1 C1          7.2564   -5.0067   -2.5022 C.3       1 CRI        -0.1301 
      2 C2          5.7785   -4.9351   -2.8604 C.3       1 CRI         0.1821 
      3 H1          5.2591   -4.2774   -2.1478 H         1 CRI         0.0710 
      4 C3          5.1200   -6.2939   -2.8601 C.ar      1 CRI        -0.0373 
      5 C4          5.0929   -7.0553   -4.0285 C.ar      1 CRI         0.0359 
      6 C5          4.4844   -8.3105   -4.0291 C.ar      1 CRI        -0.1065 
      7 C6          3.9030   -8.8042   -2.8612 C.ar      1 CRI        -0.1445 
      8 C7          3.9301   -8.0429   -1.6928 C.ar      1 CRI         0.1329 
      9 C8          4.5385   -6.7877   -1.6922 C.ar      1 CRI        -0.0076 
     10 Cl1         4.5527   -5.8733   -0.2265 Cl        1 CRI        -0.0576 
     11 F1          3.3670   -8.5335   -0.5790 F         1 CRI        -0.1200 
     12 Cl2         5.8000   -6.4833   -5.4966 Cl        1 CRI        -0.0784 
     13 O1          5.6458   -4.3741   -4.1612 O.3       1 CRI        -0.3269 
     14 C9          4.9305   -3.2236   -4.2608 C.ar      1 CRI        -0.0524 
     15 C10         5.4830   -2.0499   -4.7478 C.ar      1 CRI         0.6229 
     16 N1          4.8057   -0.8858   -4.8640 N.pl3     1 CRI        -0.7111 
     17 C11         3.5127   -0.9017   -4.4695 C.ar      1 CRI         0.4198 
     18 C12         2.8679   -2.0214   -3.9692 C.ar      1 CRI        -0.1327 
     19 C13         3.5974   -3.2007   -3.8665 C.ar      1 CRI        -0.1135 
     20 C14         1.4955   -1.9661   -3.5710 C.ar      1 CRI        -0.2022 
     21 C15         0.9471   -2.7698   -2.5536 C.ar      1 CRI        -0.1366 
     22 N2         -0.3543   -2.5397   -2.3598 N.pl3     1 CRI         0.0909 
     23 N3         -0.6323   -1.5826   -3.2614 N.2       1 CRI        -0.5022 
     24 C16         0.4414   -1.2041   -4.0122 C.ar      1 CRI         0.2996 
     25 C17        -1.3456   -3.1114   -1.4425 C.3       1 CRI         0.0752 
     26 C18        -1.8617   -2.0913   -0.4155 C.3       1 CRI        -0.0883 
     27 C19        -2.9072   -2.7232    0.5034 C.3       1 CRI         0.1632 
     28 N4         -4.0106   -3.3070   -0.2601 N.4       1 CRI        -0.8201 
     29 C20        -3.5377   -4.3379   -1.1849 C.3       1 CRI         0.1632 
     30 C21        -2.5201   -3.7764   -2.1776 C.3       1 CRI        -0.0883 
     31 N5          6.8425   -2.0724   -5.1486 N.2       1 CRI        -0.9136 
     32 H2          7.6866   -3.9944   -2.5168 H         1 CRI         0.0562 
     33 H3          7.7808   -5.6385   -3.2342 H         1 CRI         0.0562 
     34 H4          7.3695   -5.4388   -1.4970 H         1 CRI         0.0562 
     35 H5          4.4543   -8.9165   -4.9313 H         1 CRI         0.1580 
     36 H6          3.4295   -9.7817   -2.8613 H         1 CRI         0.1617 
     37 H7          3.0177   -0.0373   -4.5575 H         1 CRI         0.0209 
     38 H8          3.1669   -4.0302   -3.5108 H         1 CRI         0.1466 
     39 H9          1.5258   -3.4237   -2.0663 H         1 CRI         0.1775 
     40 H10         0.3377   -0.4982   -4.7129 H         1 CRI         0.0414 
     41 H11        -0.7623   -3.8845   -0.9209 H         1 CRI         0.0542 
     42 H12        -1.0224   -1.7323    0.1982 H         1 CRI         0.0668 
     43 H13        -2.3210   -1.2415   -0.9417 H         1 CRI         0.0668 
     44 H14        -2.4377   -3.5191    1.1002 H         1 CRI         0.0312 
     45 H15        -3.3173   -1.9547    1.1751 H         1 CRI         0.0312 
     46 H16        -4.7330   -3.7652    0.4315 H         1 CRI         0.3684 
     47 H17        -3.0585   -5.1485   -0.6164 H         1 CRI         0.0312 
     48 H18        -4.3901   -4.7414   -1.7512 H         1 CRI         0.0312 
     49 H19        -3.0213   -3.0334   -2.8154 H         1 CRI         0.0668 
     50 H20        -2.1431   -4.6003   -2.8013 H         1 CRI         0.0668 
     51 H21         7.3848   -2.9043   -5.0309 H         1 CRI         0.4117 
     52 H22         5.2505    0.0418   -5.2536 H         1 CRI         0.4117 
     53 H53        -4.5102   -2.5194   -0.8432 H         1 CRI         0.0000 
@<TRIPOS>BOND
     1    1    2 1    
     2    1   32 1    
     3    1   33 1    
     4    1   34 1    
     5    2    3 1    
     6    2    4 1    
     7    2   13 1    
     8    4    9 ar   
     9    4    5 ar   
    10    5    6 ar   
    11    5   12 1    
    12    6    7 ar   
    13    6   35 1    
    14    7    8 ar   
    15    7   36 1    
    16    8    9 ar   
    17    8   11 1    
    18    9   10 1    
    19   13   14 1    
    20   14   19 ar   
    21   14   15 ar   
    22   15   16 ar   
    23   15   31 2    
    24   16   17 ar   
    25   16   52 1    
    26   17   18 ar   
    27   17   37 1    
    28   18   19 ar   
    29   18   20 1    
    30   19   38 1    
    31   20   24 ar   
    32   20   21 ar   
    33   21   22 ar   
    34   21   39 1    
    35   22   23 ar   
    36   22   25 1    
    37   23   24 ar   
    38   24   40 1    
    39   25   30 1    
    40   25   26 1    
    41   25   41 1    
    42   26   27 1    
    43   26   42 1    
    44   26   43 1    
    45   27   28 1    
    46   27   44 1    
    47   27   45 1    
    48   28   29 1    
    49   28   46 1    
    50   28   53 1    
    51   29   30 1    
    52   29   47 1    
    53   29   48 1    
    54   30   49 1    
    55   30   50 1    
    56   31   51 1    
@<TRIPOS>SUBSTRUCTURE
     1 CRI         1 GROUP             0       ****    0 ROOT    
@<TRIPOS>MOLECULE
3-[(1~{R})-1-(2,6-dichloro-3-fluoro-phenyl)ethoxy]-5-[1-(4-piperidyl)pyrazol-4-yl]pyridin-2-amine
53   56    1
SMALL
USER_CHARGES


@<TRIPOS>ATOM
      1 C1          7.2564   -5.0067   -2.5022 C.3       1 CRI        -0.1301 
      2 C2          5.7785   -4.9351   -2.8604 C.3       1 CRI         0.1821 
      3 H1          5.2591   -4.2774   -2.1478 H         1 CRI         0.0710 
      4 C3          5.1200   -6.2939   -2.8601 C.ar      1 CRI        -0.0373 
      5 C4          5.0929   -7.0553   -4.0285 C.ar      1 CRI         0.0359 
      6 C5          4.4844   -8.3105   -4.0291 C.ar      1 CRI        -0.1065 
      7 C6          3.9030   -8.8042   -2.8612 C.ar      1 CRI        -0.1445 
      8 C7          3.9301   -8.0429   -1.6928 C.ar      1 CRI         0.1329 
      9 C8          4.5385   -6.7877   -1.6922 C.ar      1 CRI        -0.0076 
     10 Cl1         4.5527   -5.8733   -0.2265 Cl        1 CRI        -0.0576 
     11 F1          3.3670   -8.5335   -0.5790 F         1 CRI        -0.1200 
     12 Cl2         5.8000   -6.4833   -5.4966 Cl        1 CRI        -0.0784 
     13 O1          5.6458   -4.3741   -4.1612 O.3       1 CRI        -0.3269 
     14 C9          4.9305   -3.2236   -4.2608 C.ar      1 CRI        -0.0524 
     15 C10         5.4830   -2.0499   -4.7478 C.ar      1 CRI         0.6229 
     16 N1          4.8057   -0.8858   -4.8640 N.pl3     1 CRI        -0.7111 
     17 C11         3.5127   -0.9017   -4.4695 C.ar      1 CRI         0.4198 
     18 C12         2.8679   -2.0214   -3.9692 C.ar      1 CRI        -0.1327 
     19 C13         3.5974   -3.2007   -3.8665 C.ar      1 CRI        -0.1135 
     20 C14         1.4955   -1.9661   -3.5710 C.ar      1 CRI        -0.2022 
     21 C15         0.9471   -2.7698   -2.5536 C.ar      1 CRI        -0.1366 
     22 N2         -0.3543   -2.5397   -2.3598 N.pl3     1 CRI         0.0909 
     23 N3         -0.6323   -1.5826   -3.2614 N.2       1 CRI        -0.5022 
     24 C16         0.4414   -1.2041   -4.0122 C.ar      1 CRI         0.2996 
     25 C17        -1.3456   -3.1114   -1.4425 C.3       1 CRI         0.0752 
     26 C18        -1.8617   -2.0913   -0.4155 C.3       1 CRI        -0.0883 
     27 C19        -2.9072   -2.7232    0.5034 C.3       1 CRI         0.1632 
     28 N4         -4.0106   -3.3070   -0.2601 N.4       1 CRI        -0.8201 
     29 C20        -3.5377   -4.3379   -1.1849 C.3       1 CRI         0.1632 
     30 C21        -2.5201   -3.7764   -2.1776 C.3       1 CRI        -0.0883 
     31 N5          6.8425   -2.0724   -5.1486 N.2       1 CRI        -0.9136 
     32 H2          7.6866   -3.9944   -2.5168 H         1 CRI         0.0562 
     33 H3          7.7808   -5.6385   -3.2342 H         1 CRI         0.0562 
     34 H4          7.3695   -5.4388   -1.4970 H         1 CRI         0.0562 
     35 H5          4.4543   -8.9165   -4.9313 H         1 CRI         0.1580 
     36 H6          3.4295   -9.7817   -2.8613 H         1 CRI         0.1617 
     37 H7          3.0177   -0.0373   -4.5575 H         1 CRI         0.0209 
     38 H8          3.1669   -4.0302   -3.5108 H         1 CRI         0.1466 
     39 H9          1.5258   -3.4237   -2.0663 H         1 CRI         0.1775 
     40 H10         0.3377   -0.4982   -4.7129 H         1 CRI         0.0414 
     41 H11        -0.7623   -3.8845   -0.9209 H         1 CRI         0.0542 
     42 H12        -1.0224   -1.7323    0.1982 H         1 CRI         0.0668 
     43 H13        -2.3210   -1.2415   -0.9417 H         1 CRI         0.0668 
     44 H14        -2.4377   -3.5191    1.1002 H         1 CRI         0.0312 
     45 H15        -3.3173   -1.9547    1.1751 H         1 CRI         0.0312 
     46 H16        -4.7330   -3.7652    0.4315 H         1 CRI         0.3684 
     47 H17        -3.0585   -5.1485   -0.6164 H         1 CRI         0.0312 
     48 H18        -4.3901   -4.7414   -1.7512 H         1 CRI         0.0312 
     49 H19        -3.0213   -3.0334   -2.8154 H         1 CRI         0.0668 
     50 H20        -2.1431   -4.6003   -2.8013 H         1 CRI         0.0668 
     51 H21         7.2593   -1.2564   -5.5491 H         1 CRI         0.4117 
     52 H22         5.2505    0.0418   -5.2536 H         1 CRI         0.4117 
     53 H53        -4.5102   -2.5194   -0.8432 H         1 CRI         0.0000 
@<TRIPOS>BOND
     1    1    2 1    
     2    1   32 1    
     3    1   33 1    
     4    1   34 1    
     5    2    3 1    
     6    2    4 1    
     7    2   13 1    
     8    4    9 ar   
     9    4    5 ar   
    10    5    6 ar   
    11    5   12 1    
    12    6    7 ar   
    13    6   35 1    
    14    7    8 ar   
    15    7   36 1    
    16    8    9 ar   
    17    8   11 1    
    18    9   10 1    
    19   13   14 1    
    20   14   19 ar   
    21   14   15 ar   
    22   15   16 ar   
    23   15   31 2    
    24   16   17 ar   
    25   16   52 1    
    26   17   18 ar   
    27   17   37 1    
    28   18   19 ar   
    29   18   20 1    
    30   19   38 1    
    31   20   24 ar   
    32   20   21 ar   
    33   21   22 ar   
    34   21   39 1    
    35   22   23 ar   
    36   22   25 1    
    37   23   24 ar   
    38   24   40 1    
    39   25   30 1    
    40   25   26 1    
    41   25   41 1    
    42   26   27 1    
    43   26   42 1    
    44   26   43 1    
    45   27   28 1    
    46   27   44 1    
    47   27   45 1    
    48   28   29 1    
    49   28   46 1    
    50   28   53 1    
    51   29   30 1    
    52   29   47 1    
    53   29   48 1    
    54   30   49 1    
    55   30   50 1    
    56   31   51 1    
@<TRIPOS>SUBSTRUCTURE
     1 CRI         1 GROUP             0       ****    0 ROOT    
@<TRIPOS>MOLECULE
3-[(1~{R})-1-(2,6-dichloro-3-fluoro-phenyl)ethoxy]-5-[1-(4-piperidyl)pyrazol-4-yl]pyridin-2-amine
54   57    1
SMALL
USER_CHARGES


@<TRIPOS>ATOM
      1 C1          7.2574   -5.0035   -2.4989 C.3       1 CRI        -0.1301 
      2 C2          5.7795   -4.9328   -2.8571 C.3       1 CRI         0.1821 
      3 H1          5.2599   -4.2745   -2.1452 H         1 CRI         0.0710 
      4 C3          5.1215   -6.2919   -2.8552 C.ar      1 CRI        -0.0373 
      5 C4          5.0946   -7.0546   -4.0228 C.ar      1 CRI         0.0359 
      6 C5          4.4865   -8.3100   -4.0219 C.ar      1 CRI        -0.1065 
      7 C6          3.9053   -8.8026   -2.8535 C.ar      1 CRI        -0.1445 
      8 C7          3.9322   -8.0399   -1.6859 C.ar      1 CRI         0.1329 
      9 C8          4.5402   -6.7845   -1.6868 C.ar      1 CRI        -0.0076 
     10 Cl1         4.5541   -5.8684   -0.2221 Cl        1 CRI        -0.0576 
     11 F1          3.3693   -8.5294   -0.5716 F         1 CRI        -0.1200 
     12 Cl2         5.8015   -6.4840   -5.4915 Cl        1 CRI        -0.0784 
     13 O1          5.6466   -4.3734   -4.1585 O.3       1 CRI        -0.3269 
     14 C9          4.9309   -3.2232   -4.2595 C.ar      1 CRI        -0.0524 
     15 C10         5.4832   -2.0498   -4.7473 C.ar      1 CRI         0.6229 
     16 N1          4.8060   -0.8855   -4.8630 N.ar      1 CRI        -0.7111 
     17 C11         3.5126   -0.9018   -4.4698 C.ar      1 CRI         0.4198 
     18 C12         2.8679   -2.0214   -3.9692 C.ar      1 CRI        -0.1327 
     19 C13         3.5978   -3.2003   -3.8652 C.ar      1 CRI        -0.1135 
     20 C14         1.4950   -1.9665   -3.5726 C.ar      1 CRI        -0.2022 
     21 C15         0.9461   -2.7689   -2.5544 C.ar      1 CRI        -0.1366 
     22 N2         -0.3557   -2.5395   -2.3625 N.pl3     1 CRI         0.0909 
     23 N3         -0.6335   -1.5843   -3.2661 N.pl3     1 CRI        -0.5022 
     24 C16         0.4408   -1.2062   -4.0164 C.ar      1 CRI         0.2996 
     25 C17        -1.3475   -3.1104   -1.4453 C.3       1 CRI         0.0752 
     26 C18        -1.8656   -2.0889   -0.4207 C.3       1 CRI        -0.0883 
     27 C19        -2.9116   -2.7200    0.4982 C.3       1 CRI         0.1632 
     28 N4         -4.0137   -3.3062   -0.2655 N.4       1 CRI        -0.8201 
     29 C20        -3.5389   -4.3383   -1.1879 C.3       1 CRI         0.1632 
     30 C21        -2.5206   -3.7777   -2.1805 C.3       1 CRI        -0.0883 
     31 N5          6.8427   -2.0723   -5.1481 N.pl3     1 CRI        -0.9136 
     32 H2          7.6873   -3.9911   -2.5146 H         1 CRI         0.0562 
     33 H3          7.7820   -5.6360   -3.2301 H         1 CRI         0.0562 
     34 H4          7.3707   -5.4345   -1.4932 H         1 CRI         0.0562 
     35 H5          4.4566   -8.9171   -4.9234 H         1 CRI         0.1580 
     36 H6          3.4321   -9.7802   -2.8524 H         1 CRI         0.1617 
     37 H7          2.9990    0.0494   -4.5767 H         1 CRI         0.0209 
     38 H8          3.1354   -4.1057   -3.4780 H         1 CRI         0.1466 
     39 H9          1.4552   -3.5097   -1.9501 H         1 CRI         0.1775 
     40 H10         0.3372   -0.4467   -4.7759 H         1 CRI         0.0414 
     41 H11        -0.7641   -3.8820   -0.9216 H         1 CRI         0.0542 
     42 H12        -1.0273   -1.7281    0.1934 H         1 CRI         0.0668 
     43 H13        -2.3250   -1.2404   -0.9489 H         1 CRI         0.0668 
     44 H14        -2.4421   -3.5144    1.0969 H         1 CRI         0.0312 
     45 H15        -3.3232   -1.9507    1.1681 H         1 CRI         0.0312 
     46 H16        -4.7364   -3.7637    0.4261 H         1 CRI         0.3684 
     47 H17        -3.0596   -5.1475   -0.6174 H         1 CRI         0.0312 
     48 H18        -4.3903   -4.7436   -1.7544 H         1 CRI         0.0312 
     49 H19        -3.0218   -3.0363   -2.8202 H         1 CRI         0.0668 
     50 H20        -2.1422   -4.6024   -2.8023 H         1 CRI         0.0668 
     51 H21         7.3156   -1.1599   -5.5404 H         1 CRI         0.4117 
     52 H22         7.4248   -3.0021   -5.0668 H         1 CRI         0.4117 
     53 H53        -4.5133   -2.5200   -0.8506 H         1 CRI         0.0000 
     54 H54        -1.6546   -1.1830   -3.3459 H         1 CRI         0.0000 
@<TRIPOS>BOND
     1    1    2 1    
     2    1   32 1    
     3    1   33 1    
     4    1   34 1    
     5    2    3 1    
     6    2    4 1    
     7    2   13 1    
     8    4    9 ar   
     9    4    5 ar   
    10    5    6 ar   
    11    5   12 1    
    12    6    7 ar   
    13    6   35 1    
    14    7    8 ar   
    15    7   36 1    
    16    8    9 ar   
    17    8   11 1    
    18    9   10 1    
    19   13   14 1    
    20   14   19 ar   
    21   14   15 ar   
    22   15   16 ar   
    23   15   31 1    
    24   16   17 ar   
    25   17   18 ar   
    26   17   37 1    
    27   18   19 ar   
    28   18   20 1    
    29   19   38 1    
    30   20   24 ar   
    31   20   21 ar   
    32   21   22 ar   
    33   21   39 1    
    34   22   23 1    
    35   22   25 1    
    36   23   24 ar   
    37   23   54 1    
    38   24   40 1    
    39   25   30 1    
    40   25   26 1    
    41   25   41 1    
    42   26   27 1    
    43   26   42 1    
    44   26   43 1    
    45   27   28 1    
    46   27   44 1    
    47   27   45 1    
    48   28   29 1    
    49   28   46 1    
    50   28   53 1    
    51   29   30 1    
    52   29   47 1    
    53   29   48 1    
    54   30   49 1    
    55   30   50 1    
    56   31   51 1    
    57   31   52 1    
@<TRIPOS>SUBSTRUCTURE
     1 CRI         1 GROUP             0       ****    0 ROOT    
@<TRIPOS>MOLECULE
3-[(1~{R})-1-(2,6-dichloro-3-fluoro-phenyl)ethoxy]-5-[1-(4-piperidyl)pyrazol-4-yl]pyridin-2-amine
53   56    1
SMALL
USER_CHARGES


@<TRIPOS>ATOM
      1 C1          7.2574   -5.0035   -2.4989 C.3       1 CRI        -0.1301 
      2 C2          5.7795   -4.9328   -2.8571 C.3       1 CRI         0.1821 
      3 H1          5.2599   -4.2745   -2.1452 H         1 CRI         0.0710 
      4 C3          5.1215   -6.2919   -2.8552 C.ar      1 CRI        -0.0373 
      5 C4          5.0946   -7.0546   -4.0228 C.ar      1 CRI         0.0359 
      6 C5          4.4865   -8.3100   -4.0219 C.ar      1 CRI        -0.1065 
      7 C6          3.9053   -8.8026   -2.8535 C.ar      1 CRI        -0.1445 
      8 C7          3.9322   -8.0399   -1.6859 C.ar      1 CRI         0.1329 
      9 C8          4.5402   -6.7845   -1.6868 C.ar      1 CRI        -0.0076 
     10 Cl1         4.5541   -5.8684   -0.2221 Cl        1 CRI        -0.0576 
     11 F1          3.3693   -8.5294   -0.5716 F         1 CRI        -0.1200 
     12 Cl2         5.8015   -6.4840   -5.4915 Cl        1 CRI        -0.0784 
     13 O1          5.6466   -4.3734   -4.1585 O.3       1 CRI        -0.3269 
     14 C9          4.9309   -3.2232   -4.2595 C.ar      1 CRI        -0.0524 
     15 C10         5.4832   -2.0498   -4.7473 C.ar      1 CRI         0.6229 
     16 N1          4.8060   -0.8855   -4.8630 N.ar      1 CRI        -0.7111 
     17 C11         3.5126   -0.9018   -4.4698 C.ar      1 CRI         0.4198 
     18 C12         2.8679   -2.0214   -3.9692 C.ar      1 CRI        -0.1327 
     19 C13         3.5978   -3.2003   -3.8652 C.ar      1 CRI        -0.1135 
     20 C14         1.4950   -1.9665   -3.5726 C.ar      1 CRI        -0.2022 
     21 C15         0.9461   -2.7689   -2.5544 C.ar      1 CRI        -0.1366 
     22 N2         -0.3557   -2.5395   -2.3625 N.pl3     1 CRI         0.0909 
     23 N3         -0.6335   -1.5843   -3.2661 N.pl3     1 CRI        -0.5022 
     24 C16         0.4408   -1.2062   -4.0164 C.ar      1 CRI         0.2996 
     25 C17        -1.3475   -3.1104   -1.4453 C.3       1 CRI         0.0752 
     26 C18        -1.8656   -2.0889   -0.4207 C.3       1 CRI        -0.0883 
     27 C19        -2.9116   -2.7200    0.4982 C.3       1 CRI         0.1632 
     28 N4         -4.0137   -3.3062   -0.2655 N.3       1 CRI        -0.8201 
     29 C20        -3.5389   -4.3383   -1.1879 C.3       1 CRI         0.1632 
     30 C21        -2.5206   -3.7777   -2.1805 C.3       1 CRI        -0.0883 
     31 N5          6.8427   -2.0723   -5.1481 N.pl3     1 CRI        -0.9136 
     32 H2          7.6873   -3.9911   -2.5146 H         1 CRI         0.0562 
     33 H3          7.7820   -5.6360   -3.2301 H         1 CRI         0.0562 
     34 H4          7.3707   -5.4345   -1.4932 H         1 CRI         0.0562 
     35 H5          4.4566   -8.9171   -4.9234 H         1 CRI         0.1580 
     36 H6          3.4321   -9.7802   -2.8524 H         1 CRI         0.1617 
     37 H7          2.9990    0.0494   -4.5767 H         1 CRI         0.0209 
     38 H8          3.1354   -4.1057   -3.4780 H         1 CRI         0.1466 
     39 H9          1.4552   -3.5097   -1.9501 H         1 CRI         0.1775 
     40 H10         0.3372   -0.4467   -4.7759 H         1 CRI         0.0414 
     41 H11        -0.7641   -3.8820   -0.9216 H         1 CRI         0.0542 
     42 H12        -1.0273   -1.7281    0.1934 H         1 CRI         0.0668 
     43 H13        -2.3250   -1.2404   -0.9489 H         1 CRI         0.0668 
     44 H14        -2.4421   -3.5144    1.0969 H         1 CRI         0.0312 
     45 H15        -3.3232   -1.9507    1.1681 H         1 CRI         0.0312 
     46 H16        -4.7364   -3.7637    0.4261 H         1 CRI         0.3684 
     47 H17        -3.0596   -5.1475   -0.6174 H         1 CRI         0.0312 
     48 H18        -4.3903   -4.7436   -1.7544 H         1 CRI         0.0312 
     49 H19        -3.0218   -3.0363   -2.8202 H         1 CRI         0.0668 
     50 H20        -2.1422   -4.6024   -2.8023 H         1 CRI         0.0668 
     51 H21         7.3156   -1.1599   -5.5404 H         1 CRI         0.4117 
     52 H22         7.4248   -3.0021   -5.0668 H         1 CRI         0.4117 
     53 H53        -1.6546   -1.1830   -3.3459 H         1 CRI         0.0000 
@<TRIPOS>BOND
     1    1    2 1    
     2    1   32 1    
     3    1   33 1    
     4    1   34 1    
     5    2    3 1    
     6    2    4 1    
     7    2   13 1    
     8    4    9 ar   
     9    4    5 ar   
    10    5    6 ar   
    11    5   12 1    
    12    6    7 ar   
    13    6   35 1    
    14    7    8 ar   
    15    7   36 1    
    16    8    9 ar   
    17    8   11 1    
    18    9   10 1    
    19   13   14 1    
    20   14   19 ar   
    21   14   15 ar   
    22   15   16 ar   
    23   15   31 1    
    24   16   17 ar   
    25   17   18 ar   
    26   17   37 1    
    27   18   19 ar   
    28   18   20 1    
    29   19   38 1    
    30   20   24 ar   
    31   20   21 ar   
    32   21   22 ar   
    33   21   39 1    
    34   22   23 1    
    35   22   25 1    
    36   23   24 ar   
    37   23   53 1    
    38   24   40 1    
    39   25   30 1    
    40   25   26 1    
    41   25   41 1    
    42   26   27 1    
    43   26   42 1    
    44   26   43 1    
    45   27   28 1    
    46   27   44 1    
    47   27   45 1    
    48   28   29 1    
    49   28   46 1    
    50   29   30 1    
    51   29   47 1    
    52   29   48 1    
    53   30   49 1    
    54   30   50 1    
    55   31   51 1    
    56   31   52 1    
@<TRIPOS>SUBSTRUCTURE
     1 CRI         1 GROUP             0       ****    0 ROOT    
@<TRIPOS>MOLECULE
3-[(1~{R})-1-(2,6-dichloro-3-fluoro-phenyl)ethoxy]-5-[1-(4-piperidyl)pyrazol-4-yl]pyridin-2-amine
52   55    1
SMALL
USER_CHARGES


@<TRIPOS>ATOM
      1 C1          7.2574   -5.0035   -2.4989 C.3       1 CRI        -0.1301 
      2 C2          5.7795   -4.9328   -2.8571 C.3       1 CRI         0.1821 
      3 H1          5.2599   -4.2745   -2.1452 H         1 CRI         0.0710 
      4 C3          5.1215   -6.2919   -2.8552 C.ar      1 CRI        -0.0373 
      5 C4          5.0946   -7.0546   -4.0228 C.ar      1 CRI         0.0359 
      6 C5          4.4865   -8.3100   -4.0219 C.ar      1 CRI        -0.1065 
      7 C6          3.9053   -8.8026   -2.8535 C.ar      1 CRI        -0.1445 
      8 C7          3.9322   -8.0399   -1.6859 C.ar      1 CRI         0.1329 
      9 C8          4.5402   -6.7845   -1.6868 C.ar      1 CRI        -0.0076 
     10 Cl1         4.5541   -5.8684   -0.2221 Cl        1 CRI        -0.0576 
     11 F1          3.3693   -8.5294   -0.5716 F         1 CRI        -0.1200 
     12 Cl2         5.8015   -6.4840   -5.4915 Cl        1 CRI        -0.0784 
     13 O1          5.6466   -4.3734   -4.1585 O.3       1 CRI        -0.3269 
     14 C9          4.9309   -3.2232   -4.2595 C.ar      1 CRI        -0.0524 
     15 C10         5.4832   -2.0498   -4.7473 C.ar      1 CRI         0.6229 
     16 N1          4.8060   -0.8855   -4.8630 N.ar      1 CRI        -0.7111 
     17 C11         3.5126   -0.9018   -4.4698 C.ar      1 CRI         0.4198 
     18 C12         2.8679   -2.0214   -3.9692 C.ar      1 CRI        -0.1327 
     19 C13         3.5978   -3.2003   -3.8652 C.ar      1 CRI        -0.1135 
     20 C14         1.4950   -1.9665   -3.5726 C.ar      1 CRI        -0.2022 
     21 C15         0.9461   -2.7689   -2.5544 C.ar      1 CRI        -0.1366 
     22 N2         -0.3557   -2.5395   -2.3625 N.pl3     1 CRI         0.0909 
     23 N3         -0.6335   -1.5843   -3.2661 N.2       1 CRI        -0.5022 
     24 C16         0.4408   -1.2062   -4.0164 C.ar      1 CRI         0.2996 
     25 C17        -1.3475   -3.1104   -1.4453 C.3       1 CRI         0.0752 
     26 C18        -1.8656   -2.0889   -0.4207 C.3       1 CRI        -0.0883 
     27 C19        -2.9116   -2.7200    0.4982 C.3       1 CRI         0.1632 
     28 N4         -4.0137   -3.3062   -0.2655 N.4       1 CRI        -0.8201 
     29 C20        -3.5389   -4.3383   -1.1879 C.3       1 CRI         0.1632 
     30 C21        -2.5206   -3.7777   -2.1805 C.3       1 CRI        -0.0883 
     31 N5          6.8427   -2.0723   -5.1481 N.2       1 CRI        -0.9136 
     32 H2          7.6873   -3.9911   -2.5146 H         1 CRI         0.0562 
     33 H3          7.7820   -5.6360   -3.2301 H         1 CRI         0.0562 
     34 H4          7.3707   -5.4345   -1.4932 H         1 CRI         0.0562 
     35 H5          4.4566   -8.9171   -4.9234 H         1 CRI         0.1580 
     36 H6          3.4321   -9.7802   -2.8524 H         1 CRI         0.1617 
     37 H7          2.9990    0.0494   -4.5767 H         1 CRI         0.0209 
     38 H8          3.1354   -4.1057   -3.4780 H         1 CRI         0.1466 
     39 H9          1.4552   -3.5097   -1.9501 H         1 CRI         0.1775 
     40 H10         0.3372   -0.4467   -4.7759 H         1 CRI         0.0414 
     41 H11        -0.7641   -3.8820   -0.9216 H         1 CRI         0.0542 
     42 H12        -1.0273   -1.7281    0.1934 H         1 CRI         0.0668 
     43 H13        -2.3250   -1.2404   -0.9489 H         1 CRI         0.0668 
     44 H14        -2.4421   -3.5144    1.0969 H         1 CRI         0.0312 
     45 H15        -3.3232   -1.9507    1.1681 H         1 CRI         0.0312 
     46 H16        -4.7364   -3.7637    0.4261 H         1 CRI         0.3684 
     47 H17        -3.0596   -5.1475   -0.6174 H         1 CRI         0.0312 
     48 H18        -4.3903   -4.7436   -1.7544 H         1 CRI         0.0312 
     49 H19        -3.0218   -3.0363   -2.8202 H         1 CRI         0.0668 
     50 H20        -2.1422   -4.6024   -2.8023 H         1 CRI         0.0668 
     51 H22         7.3156   -1.1599   -5.5404 H         1 CRI         0.4117 
     52 H52        -4.5133   -2.5200   -0.8506 H         1 CRI         0.0000 
@<TRIPOS>BOND
     1    1    2 1    
     2    1   32 1    
     3    1   33 1    
     4    1   34 1    
     5    2    3 1    
     6    2    4 1    
     7    2   13 1    
     8    4    9 ar   
     9    4    5 ar   
    10    5    6 ar   
    11    5   12 1    
    12    6    7 ar   
    13    6   35 1    
    14    7    8 ar   
    15    7   36 1    
    16    8    9 ar   
    17    8   11 1    
    18    9   10 1    
    19   13   14 1    
    20   14   19 ar   
    21   14   15 ar   
    22   15   16 ar   
    23   15   31 1    
    24   16   17 ar   
    25   17   18 ar   
    26   17   37 1    
    27   18   19 ar   
    28   18   20 1    
    29   19   38 1    
    30   20   24 ar   
    31   20   21 ar   
    32   21   22 ar   
    33   21   39 1    
    34   22   23 ar   
    35   22   25 1    
    36   23   24 ar   
    37   24   40 1    
    38   25   30 1    
    39   25   26 1    
    40   25   41 1    
    41   26   27 1    
    42   26   42 1    
    43   26   43 1    
    44   27   28 1    
    45   27   44 1    
    46   27   45 1    
    47   28   29 1    
    48   28   46 1    
    49   28   52 1    
    50   29   30 1    
    51   29   47 1    
    52   29   48 1    
    53   30   49 1    
    54   30   50 1    
    55   31   51 1    
@<TRIPOS>SUBSTRUCTURE
     1 CRI         1 GROUP             0       ****    0 ROOT    
@<TRIPOS>MOLECULE
3-[(1~{R})-1-(2,6-dichloro-3-fluoro-phenyl)ethoxy]-5-[1-(4-piperidyl)pyrazol-4-yl]pyridin-2-amine
55   58    1
SMALL
USER_CHARGES


@<TRIPOS>ATOM
      1 C1          7.2574   -5.0035   -2.4989 C.3       1 CRI        -0.1301 
      2 C2          5.7795   -4.9328   -2.8571 C.3       1 CRI         0.1821 
      3 H1          5.2599   -4.2745   -2.1452 H         1 CRI         0.0710 
      4 C3          5.1215   -6.2919   -2.8552 C.ar      1 CRI        -0.0373 
      5 C4          5.0946   -7.0546   -4.0228 C.ar      1 CRI         0.0359 
      6 C5          4.4865   -8.3100   -4.0219 C.ar      1 CRI        -0.1065 
      7 C6          3.9053   -8.8026   -2.8535 C.ar      1 CRI        -0.1445 
      8 C7          3.9322   -8.0399   -1.6859 C.ar      1 CRI         0.1329 
      9 C8          4.5402   -6.7845   -1.6868 C.ar      1 CRI        -0.0076 
     10 Cl1         4.5541   -5.8684   -0.2221 Cl        1 CRI        -0.0576 
     11 F1          3.3693   -8.5294   -0.5716 F         1 CRI        -0.1200 
     12 Cl2         5.8015   -6.4840   -5.4915 Cl        1 CRI        -0.0784 
     13 O1          5.6466   -4.3734   -4.1585 O.3       1 CRI        -0.3269 
     14 C9          4.9309   -3.2232   -4.2595 C.ar      1 CRI        -0.0524 
     15 C10         5.4832   -2.0498   -4.7473 C.ar      1 CRI         0.6229 
     16 N1          4.8060   -0.8855   -4.8630 N.pl3     1 CRI        -0.7111 
     17 C11         3.5126   -0.9018   -4.4698 C.ar      1 CRI         0.4198 
     18 C12         2.8679   -2.0214   -3.9692 C.ar      1 CRI        -0.1327 
     19 C13         3.5978   -3.2003   -3.8652 C.ar      1 CRI        -0.1135 
     20 C14         1.4950   -1.9665   -3.5726 C.ar      1 CRI        -0.2022 
     21 C15         0.9461   -2.7689   -2.5544 C.ar      1 CRI        -0.1366 
     22 N2         -0.3557   -2.5395   -2.3625 N.pl3     1 CRI         0.0909 
     23 N3         -0.6335   -1.5843   -3.2661 N.pl3     1 CRI        -0.5022 
     24 C16         0.4408   -1.2062   -4.0164 C.ar      1 CRI         0.2996 
     25 C17        -1.3475   -3.1104   -1.4453 C.3       1 CRI         0.0752 
     26 C18        -1.8656   -2.0889   -0.4207 C.3       1 CRI        -0.0883 
     27 C19        -2.9116   -2.7200    0.4982 C.3       1 CRI         0.1632 
     28 N4         -4.0137   -3.3062   -0.2655 N.4       1 CRI        -0.8201 
     29 C20        -3.5389   -4.3383   -1.1879 C.3       1 CRI         0.1632 
     30 C21        -2.5206   -3.7777   -2.1805 C.3       1 CRI        -0.0883 
     31 N5          6.8427   -2.0723   -5.1481 N.pl3     1 CRI        -0.9136 
     32 H2          7.6873   -3.9911   -2.5146 H         1 CRI         0.0562 
     33 H3          7.7820   -5.6360   -3.2301 H         1 CRI         0.0562 
     34 H4          7.3707   -5.4345   -1.4932 H         1 CRI         0.0562 
     35 H5          4.4566   -8.9171   -4.9234 H         1 CRI         0.1580 
     36 H6          3.4321   -9.7802   -2.8524 H         1 CRI         0.1617 
     37 H7          2.9990    0.0494   -4.5767 H         1 CRI         0.0209 
     38 H8          3.1354   -4.1057   -3.4780 H         1 CRI         0.1466 
     39 H9          1.4552   -3.5097   -1.9501 H         1 CRI         0.1775 
     40 H10         0.3372   -0.4467   -4.7759 H         1 CRI         0.0414 
     41 H11        -0.7641   -3.8820   -0.9216 H         1 CRI         0.0542 
     42 H12        -1.0273   -1.7281    0.1934 H         1 CRI         0.0668 
     43 H13        -2.3250   -1.2404   -0.9489 H         1 CRI         0.0668 
     44 H14        -2.4421   -3.5144    1.0969 H         1 CRI         0.0312 
     45 H15        -3.3232   -1.9507    1.1681 H         1 CRI         0.0312 
     46 H16        -4.7364   -3.7637    0.4261 H         1 CRI         0.3684 
     47 H17        -3.0596   -5.1475   -0.6174 H         1 CRI         0.0312 
     48 H18        -4.3903   -4.7436   -1.7544 H         1 CRI         0.0312 
     49 H19        -3.0218   -3.0363   -2.8202 H         1 CRI         0.0668 
     50 H20        -2.1422   -4.6024   -2.8023 H         1 CRI         0.0668 
     51 H21         7.3156   -1.1599   -5.5404 H         1 CRI         0.4117 
     52 H22         7.4248   -3.0021   -5.0668 H         1 CRI         0.4117 
     53 H53        -4.5133   -2.5200   -0.8506 H         1 CRI         0.0000 
     54 H54         5.3112    0.0075   -5.2597 H         1 CRI         0.0000 
     55 H55        -1.6546   -1.1830   -3.3459 H         1 CRI         0.0000 
@<TRIPOS>BOND
     1    1    2 1    
     2    1   32 1    
     3    1   33 1    
     4    1   34 1    
     5    2    3 1    
     6    2    4 1    
     7    2   13 1    
     8    4    9 ar   
     9    4    5 ar   
    10    5    6 ar   
    11    5   12 1    
    12    6    7 ar   
    13    6   35 1    
    14    7    8 ar   
    15    7   36 1    
    16    8    9 ar   
    17    8   11 1    
    18    9   10 1    
    19   13   14 1    
    20   14   19 ar   
    21   14   15 ar   
    22   15   16 ar   
    23   15   31 1    
    24   16   17 ar   
    25   16   54 1    
    26   17   18 ar   
    27   17   37 1    
    28   18   19 ar   
    29   18   20 1    
    30   19   38 1    
    31   20   24 ar   
    32   20   21 ar   
    33   21   22 ar   
    34   21   39 1    
    35   22   23 1    
    36   22   25 1    
    37   23   24 ar   
    38   23   55 1    
    39   24   40 1    
    40   25   30 1    
    41   25   26 1    
    42   25   41 1    
    43   26   27 1    
    44   26   42 1    
    45   26   43 1    
    46   27   28 1    
    47   27   44 1    
    48   27   45 1    
    49   28   29 1    
    50   28   46 1    
    51   28   53 1    
    52   29   30 1    
    53   29   47 1    
    54   29   48 1    
    55   30   49 1    
    56   30   50 1    
    57   31   51 1    
    58   31   52 1    
@<TRIPOS>SUBSTRUCTURE
     1 CRI         1 GROUP             0       ****    0 ROOT    
@<TRIPOS>MOLECULE
3-[(1~{R})-1-(2,6-dichloro-3-fluoro-phenyl)ethoxy]-5-[1-(4-piperidyl)pyrazol-4-yl]pyridin-2-amine
52   55    1
SMALL
USER_CHARGES


@<TRIPOS>ATOM
      1 C1          7.2564   -5.0067   -2.5022 C.3       1 CRI        -0.1301 
      2 C2          5.7785   -4.9351   -2.8604 C.3       1 CRI         0.1821 
      3 H1          5.2591   -4.2774   -2.1478 H         1 CRI         0.0710 
      4 C3          5.1200   -6.2939   -2.8601 C.ar      1 CRI        -0.0373 
      5 C4          5.0929   -7.0553   -4.0285 C.ar      1 CRI         0.0359 
      6 C5          4.4844   -8.3105   -4.0291 C.ar      1 CRI        -0.1065 
      7 C6          3.9030   -8.8042   -2.8612 C.ar      1 CRI        -0.1445 
      8 C7          3.9301   -8.0429   -1.6928 C.ar      1 CRI         0.1329 
      9 C8          4.5385   -6.7877   -1.6922 C.ar      1 CRI        -0.0076 
     10 Cl1         4.5527   -5.8733   -0.2265 Cl        1 CRI        -0.0576 
     11 F1          3.3670   -8.5335   -0.5790 F         1 CRI        -0.1200 
     12 Cl2         5.8000   -6.4833   -5.4966 Cl        1 CRI        -0.0784 
     13 O1          5.6458   -4.3741   -4.1612 O.3       1 CRI        -0.3269 
     14 C9          4.9305   -3.2236   -4.2608 C.ar      1 CRI        -0.0524 
     15 C10         5.4830   -2.0499   -4.7478 C.ar      1 CRI         0.6229 
     16 N1          4.8057   -0.8858   -4.8640 N.pl3     1 CRI        -0.7111 
     17 C11         3.5127   -0.9017   -4.4695 C.ar      1 CRI         0.4198 
     18 C12         2.8679   -2.0214   -3.9692 C.ar      1 CRI        -0.1327 
     19 C13         3.5974   -3.2007   -3.8665 C.ar      1 CRI        -0.1135 
     20 C14         1.4955   -1.9661   -3.5710 C.ar      1 CRI        -0.2022 
     21 C15         0.9471   -2.7698   -2.5536 C.ar      1 CRI        -0.1366 
     22 N2         -0.3543   -2.5397   -2.3598 N.pl3     1 CRI         0.0909 
     23 N3         -0.6323   -1.5826   -3.2614 N.2       1 CRI        -0.5022 
     24 C16         0.4414   -1.2041   -4.0122 C.ar      1 CRI         0.2996 
     25 C17        -1.3456   -3.1114   -1.4425 C.3       1 CRI         0.0752 
     26 C18        -1.8617   -2.0913   -0.4155 C.3       1 CRI        -0.0883 
     27 C19        -2.9072   -2.7232    0.5034 C.3       1 CRI         0.1632 
     28 N4         -4.0106   -3.3070   -0.2601 N.3       1 CRI        -0.8201 
     29 C20        -3.5377   -4.3379   -1.1849 C.3       1 CRI         0.1632 
     30 C21        -2.5201   -3.7764   -2.1776 C.3       1 CRI        -0.0883 
     31 N5          6.8425   -2.0724   -5.1486 N.2       1 CRI        -0.9136 
     32 H2          7.6866   -3.9944   -2.5168 H         1 CRI         0.0562 
     33 H3          7.7808   -5.6385   -3.2342 H         1 CRI         0.0562 
     34 H4          7.3695   -5.4388   -1.4970 H         1 CRI         0.0562 
     35 H5          4.4543   -8.9165   -4.9313 H         1 CRI         0.1580 
     36 H6          3.4295   -9.7817   -2.8613 H         1 CRI         0.1617 
     37 H7          3.0177   -0.0373   -4.5575 H         1 CRI         0.0209 
     38 H8          3.1669   -4.0302   -3.5108 H         1 CRI         0.1466 
     39 H9          1.5258   -3.4237   -2.0663 H         1 CRI         0.1775 
     40 H10         0.3377   -0.4982   -4.7129 H         1 CRI         0.0414 
     41 H11        -0.7623   -3.8845   -0.9209 H         1 CRI         0.0542 
     42 H12        -1.0224   -1.7323    0.1982 H         1 CRI         0.0668 
     43 H13        -2.3210   -1.2415   -0.9417 H         1 CRI         0.0668 
     44 H14        -2.4377   -3.5191    1.1002 H         1 CRI         0.0312 
     45 H15        -3.3173   -1.9547    1.1751 H         1 CRI         0.0312 
     46 H16        -4.7330   -3.7652    0.4315 H         1 CRI         0.3684 
     47 H17        -3.0585   -5.1485   -0.6164 H         1 CRI         0.0312 
     48 H18        -4.3901   -4.7414   -1.7512 H         1 CRI         0.0312 
     49 H19        -3.0213   -3.0334   -2.8154 H         1 CRI         0.0668 
     50 H20        -2.1431   -4.6003   -2.8013 H         1 CRI         0.0668 
     51 H21         7.3848   -2.9043   -5.0309 H         1 CRI         0.4117 
     52 H22         5.2505    0.0418   -5.2536 H         1 CRI         0.4117 
@<TRIPOS>BOND
     1    1    2 1    
     2    1   32 1    
     3    1   33 1    
     4    1   34 1    
     5    2    3 1    
     6    2    4 1    
     7    2   13 1    
     8    4    9 ar   
     9    4    5 ar   
    10    5    6 ar   
    11    5   12 1    
    12    6    7 ar   
    13    6   35 1    
    14    7    8 ar   
    15    7   36 1    
    16    8    9 ar   
    17    8   11 1    
    18    9   10 1    
    19   13   14 1    
    20   14   19 ar   
    21   14   15 ar   
    22   15   16 ar   
    23   15   31 2    
    24   16   17 ar   
    25   16   52 1    
    26   17   18 ar   
    27   17   37 1    
    28   18   19 ar   
    29   18   20 1    
    30   19   38 1    
    31   20   24 ar   
    32   20   21 ar   
    33   21   22 ar   
    34   21   39 1    
    35   22   23 ar   
    36   22   25 1    
    37   23   24 ar   
    38   24   40 1    
    39   25   30 1    
    40   25   26 1    
    41   25   41 1    
    42   26   27 1    
    43   26   42 1    
    44   26   43 1    
    45   27   28 1    
    46   27   44 1    
    47   27   45 1    
    48   28   29 1    
    49   28   46 1    
    50   29   30 1    
    51   29   47 1    
    52   29   48 1    
    53   30   49 1    
    54   30   50 1    
    55   31   51 1    
@<TRIPOS>SUBSTRUCTURE
     1 CRI         1 GROUP             0       ****    0 ROOT    
@<TRIPOS>MOLECULE
3-[(1~{R})-1-(2,6-dichloro-3-fluoro-phenyl)ethoxy]-5-[1-(4-piperidyl)pyrazol-4-yl]pyridin-2-amine
52   55    1
SMALL
USER_CHARGES


@<TRIPOS>ATOM
      1 C1          7.2564   -5.0067   -2.5022 C.3       1 CRI        -0.1301 
      2 C2          5.7785   -4.9351   -2.8604 C.3       1 CRI         0.1821 
      3 H1          5.2591   -4.2774   -2.1478 H         1 CRI         0.0710 
      4 C3          5.1200   -6.2939   -2.8601 C.ar      1 CRI        -0.0373 
      5 C4          5.0929   -7.0553   -4.0285 C.ar      1 CRI         0.0359 
      6 C5          4.4844   -8.3105   -4.0291 C.ar      1 CRI        -0.1065 
      7 C6          3.9030   -8.8042   -2.8612 C.ar      1 CRI        -0.1445 
      8 C7          3.9301   -8.0429   -1.6928 C.ar      1 CRI         0.1329 
      9 C8          4.5385   -6.7877   -1.6922 C.ar      1 CRI        -0.0076 
     10 Cl1         4.5527   -5.8733   -0.2265 Cl        1 CRI        -0.0576 
     11 F1          3.3670   -8.5335   -0.5790 F         1 CRI        -0.1200 
     12 Cl2         5.8000   -6.4833   -5.4966 Cl        1 CRI        -0.0784 
     13 O1          5.6458   -4.3741   -4.1612 O.3       1 CRI        -0.3269 
     14 C9          4.9305   -3.2236   -4.2608 C.ar      1 CRI        -0.0524 
     15 C10         5.4830   -2.0499   -4.7478 C.ar      1 CRI         0.6229 
     16 N1          4.8057   -0.8858   -4.8640 N.pl3     1 CRI        -0.7111 
     17 C11         3.5127   -0.9017   -4.4695 C.ar      1 CRI         0.4198 
     18 C12         2.8679   -2.0214   -3.9692 C.ar      1 CRI        -0.1327 
     19 C13         3.5974   -3.2007   -3.8665 C.ar      1 CRI        -0.1135 
     20 C14         1.4955   -1.9661   -3.5710 C.ar      1 CRI        -0.2022 
     21 C15         0.9471   -2.7698   -2.5536 C.ar      1 CRI        -0.1366 
     22 N2         -0.3543   -2.5397   -2.3598 N.pl3     1 CRI         0.0909 
     23 N3         -0.6323   -1.5826   -3.2614 N.2       1 CRI        -0.5022 
     24 C16         0.4414   -1.2041   -4.0122 C.ar      1 CRI         0.2996 
     25 C17        -1.3456   -3.1114   -1.4425 C.3       1 CRI         0.0752 
     26 C18        -1.8617   -2.0913   -0.4155 C.3       1 CRI        -0.0883 
     27 C19        -2.9072   -2.7232    0.5034 C.3       1 CRI         0.1632 
     28 N4         -4.0106   -3.3070   -0.2601 N.3       1 CRI        -0.8201 
     29 C20        -3.5377   -4.3379   -1.1849 C.3       1 CRI         0.1632 
     30 C21        -2.5201   -3.7764   -2.1776 C.3       1 CRI        -0.0883 
     31 N5          6.8425   -2.0724   -5.1486 N.2       1 CRI        -0.9136 
     32 H2          7.6866   -3.9944   -2.5168 H         1 CRI         0.0562 
     33 H3          7.7808   -5.6385   -3.2342 H         1 CRI         0.0562 
     34 H4          7.3695   -5.4388   -1.4970 H         1 CRI         0.0562 
     35 H5          4.4543   -8.9165   -4.9313 H         1 CRI         0.1580 
     36 H6          3.4295   -9.7817   -2.8613 H         1 CRI         0.1617 
     37 H7          3.0177   -0.0373   -4.5575 H         1 CRI         0.0209 
     38 H8          3.1669   -4.0302   -3.5108 H         1 CRI         0.1466 
     39 H9          1.5258   -3.4237   -2.0663 H         1 CRI         0.1775 
     40 H10         0.3377   -0.4982   -4.7129 H         1 CRI         0.0414 
     41 H11        -0.7623   -3.8845   -0.9209 H         1 CRI         0.0542 
     42 H12        -1.0224   -1.7323    0.1982 H         1 CRI         0.0668 
     43 H13        -2.3210   -1.2415   -0.9417 H         1 CRI         0.0668 
     44 H14        -2.4377   -3.5191    1.1002 H         1 CRI         0.0312 
     45 H15        -3.3173   -1.9547    1.1751 H         1 CRI         0.0312 
     46 H16        -4.7330   -3.7652    0.4315 H         1 CRI         0.3684 
     47 H17        -3.0585   -5.1485   -0.6164 H         1 CRI         0.0312 
     48 H18        -4.3901   -4.7414   -1.7512 H         1 CRI         0.0312 
     49 H19        -3.0213   -3.0334   -2.8154 H         1 CRI         0.0668 
     50 H20        -2.1431   -4.6003   -2.8013 H         1 CRI         0.0668 
     51 H21         7.2593   -1.2564   -5.5491 H         1 CRI         0.4117 
     52 H22         5.2505    0.0418   -5.2536 H         1 CRI         0.4117 
@<TRIPOS>BOND
     1    1    2 1    
     2    1   32 1    
     3    1   33 1    
     4    1   34 1    
     5    2    3 1    
     6    2    4 1    
     7    2   13 1    
     8    4    9 ar   
     9    4    5 ar   
    10    5    6 ar   
    11    5   12 1    
    12    6    7 ar   
    13    6   35 1    
    14    7    8 ar   
    15    7   36 1    
    16    8    9 ar   
    17    8   11 1    
    18    9   10 1    
    19   13   14 1    
    20   14   19 ar   
    21   14   15 ar   
    22   15   16 ar   
    23   15   31 2    
    24   16   17 ar   
    25   16   52 1    
    26   17   18 ar   
    27   17   37 1    
    28   18   19 ar   
    29   18   20 1    
    30   19   38 1    
    31   20   24 ar   
    32   20   21 ar   
    33   21   22 ar   
    34   21   39 1    
    35   22   23 ar   
    36   22   25 1    
    37   23   24 ar   
    38   24   40 1    
    39   25   30 1    
    40   25   26 1    
    41   25   41 1    
    42   26   27 1    
    43   26   42 1    
    44   26   43 1    
    45   27   28 1    
    46   27   44 1    
    47   27   45 1    
    48   28   29 1    
    49   28   46 1    
    50   29   30 1    
    51   29   47 1    
    52   29   48 1    
    53   30   49 1    
    54   30   50 1    
    55   31   51 1    
@<TRIPOS>SUBSTRUCTURE
     1 CRI         1 GROUP             0       ****    0 ROOT    
@<TRIPOS>MOLECULE
3-[(1~{R})-1-(2,6-dichloro-3-fluoro-phenyl)ethoxy]-5-[1-(4-piperidyl)pyrazol-4-yl]pyridin-2-amine
52   55    1
SMALL
USER_CHARGES


@<TRIPOS>ATOM
      1 C1          7.2564   -5.0067   -2.5022 C.3       1 CRI        -0.1301 
      2 C2          5.7785   -4.9351   -2.8604 C.3       1 CRI         0.1821 
      3 H1          5.2591   -4.2774   -2.1478 H         1 CRI         0.0710 
      4 C3          5.1200   -6.2939   -2.8601 C.ar      1 CRI        -0.0373 
      5 C4          5.0929   -7.0553   -4.0285 C.ar      1 CRI         0.0359 
      6 C5          4.4844   -8.3105   -4.0291 C.ar      1 CRI        -0.1065 
      7 C6          3.9030   -8.8042   -2.8612 C.ar      1 CRI        -0.1445 
      8 C7          3.9301   -8.0429   -1.6928 C.ar      1 CRI         0.1329 
      9 C8          4.5385   -6.7877   -1.6922 C.ar      1 CRI        -0.0076 
     10 Cl1         4.5527   -5.8733   -0.2265 Cl        1 CRI        -0.0576 
     11 F1          3.3670   -8.5335   -0.5790 F         1 CRI        -0.1200 
     12 Cl2         5.8000   -6.4833   -5.4966 Cl        1 CRI        -0.0784 
     13 O1          5.6458   -4.3741   -4.1612 O.3       1 CRI        -0.3269 
     14 C9          4.9305   -3.2236   -4.2608 C.ar      1 CRI        -0.0524 
     15 C10         5.4830   -2.0499   -4.7478 C.ar      1 CRI         0.6229 
     16 N1          4.8057   -0.8858   -4.8640 N.2       1 CRI        -0.7111 
     17 C11         3.5127   -0.9017   -4.4695 C.ar      1 CRI         0.4198 
     18 C12         2.8679   -2.0214   -3.9692 C.ar      1 CRI        -0.1327 
     19 C13         3.5974   -3.2007   -3.8665 C.ar      1 CRI        -0.1135 
     20 C14         1.4955   -1.9661   -3.5710 C.ar      1 CRI        -0.2022 
     21 C15         0.9471   -2.7698   -2.5536 C.ar      1 CRI        -0.1366 
     22 N2         -0.3543   -2.5397   -2.3598 N.pl3     1 CRI         0.0909 
     23 N3         -0.6323   -1.5826   -3.2614 N.2       1 CRI        -0.5022 
     24 C16         0.4414   -1.2041   -4.0122 C.ar      1 CRI         0.2996 
     25 C17        -1.3456   -3.1114   -1.4425 C.3       1 CRI         0.0752 
     26 C18        -1.8617   -2.0913   -0.4155 C.3       1 CRI        -0.0883 
     27 C19        -2.9072   -2.7232    0.5034 C.3       1 CRI         0.1632 
     28 N4         -4.0106   -3.3070   -0.2601 N.4       1 CRI        -0.8201 
     29 C20        -3.5377   -4.3379   -1.1849 C.3       1 CRI         0.1632 
     30 C21        -2.5201   -3.7764   -2.1776 C.3       1 CRI        -0.0883 
     31 N5          6.8425   -2.0724   -5.1486 N.2       1 CRI        -0.9136 
     32 H2          7.6866   -3.9944   -2.5168 H         1 CRI         0.0562 
     33 H3          7.7808   -5.6385   -3.2342 H         1 CRI         0.0562 
     34 H4          7.3695   -5.4388   -1.4970 H         1 CRI         0.0562 
     35 H5          4.4543   -8.9165   -4.9313 H         1 CRI         0.1580 
     36 H6          3.4295   -9.7817   -2.8613 H         1 CRI         0.1617 
     37 H7          3.0177   -0.0373   -4.5575 H         1 CRI         0.0209 
     38 H8          3.1669   -4.0302   -3.5108 H         1 CRI         0.1466 
     39 H9          1.5258   -3.4237   -2.0663 H         1 CRI         0.1775 
     40 H10         0.3377   -0.4982   -4.7129 H         1 CRI         0.0414 
     41 H11        -0.7623   -3.8845   -0.9209 H         1 CRI         0.0542 
     42 H12        -1.0224   -1.7323    0.1982 H         1 CRI         0.0668 
     43 H13        -2.3210   -1.2415   -0.9417 H         1 CRI         0.0668 
     44 H14        -2.4377   -3.5191    1.1002 H         1 CRI         0.0312 
     45 H15        -3.3173   -1.9547    1.1751 H         1 CRI         0.0312 
     46 H16        -4.7330   -3.7652    0.4315 H         1 CRI         0.3684 
     47 H17        -3.0585   -5.1485   -0.6164 H         1 CRI         0.0312 
     48 H18        -4.3901   -4.7414   -1.7512 H         1 CRI         0.0312 
     49 H19        -3.0213   -3.0334   -2.8154 H         1 CRI         0.0668 
     50 H20        -2.1431   -4.6003   -2.8013 H         1 CRI         0.0668 
     51 H21         7.3848   -2.9043   -5.0309 H         1 CRI         0.4117 
     52 H52        -4.5102   -2.5194   -0.8432 H         1 CRI         0.0000 
@<TRIPOS>BOND
     1    1    2 1    
     2    1   32 1    
     3    1   33 1    
     4    1   34 1    
     5    2    3 1    
     6    2    4 1    
     7    2   13 1    
     8    4    9 ar   
     9    4    5 ar   
    10    5    6 ar   
    11    5   12 1    
    12    6    7 ar   
    13    6   35 1    
    14    7    8 ar   
    15    7   36 1    
    16    8    9 ar   
    17    8   11 1    
    18    9   10 1    
    19   13   14 1    
    20   14   19 ar   
    21   14   15 ar   
    22   15   16 ar   
    23   15   31 2    
    24   16   17 ar   
    25   17   18 ar   
    26   17   37 1    
    27   18   19 ar   
    28   18   20 1    
    29   19   38 1    
    30   20   24 ar   
    31   20   21 ar   
    32   21   22 ar   
    33   21   39 1    
    34   22   23 ar   
    35   22   25 1    
    36   23   24 ar   
    37   24   40 1    
    38   25   30 1    
    39   25   26 1    
    40   25   41 1    
    41   26   27 1    
    42   26   42 1    
    43   26   43 1    
    44   27   28 1    
    45   27   44 1    
    46   27   45 1    
    47   28   29 1    
    48   28   46 1    
    49   28   52 1    
    50   29   30 1    
    51   29   47 1    
    52   29   48 1    
    53   30   49 1    
    54   30   50 1    
    55   31   51 1    
@<TRIPOS>SUBSTRUCTURE
     1 CRI         1 GROUP             0       ****    0 ROOT    
@<TRIPOS>MOLECULE
3-[(1~{R})-1-(2,6-dichloro-3-fluoro-phenyl)ethoxy]-5-[1-(4-piperidyl)pyrazol-4-yl]pyridin-2-amine
52   55    1
SMALL
USER_CHARGES


@<TRIPOS>ATOM
      1 C1          7.2564   -5.0067   -2.5022 C.3       1 CRI        -0.1301 
      2 C2          5.7785   -4.9351   -2.8604 C.3       1 CRI         0.1821 
      3 H1          5.2591   -4.2774   -2.1478 H         1 CRI         0.0710 
      4 C3          5.1200   -6.2939   -2.8601 C.ar      1 CRI        -0.0373 
      5 C4          5.0929   -7.0553   -4.0285 C.ar      1 CRI         0.0359 
      6 C5          4.4844   -8.3105   -4.0291 C.ar      1 CRI        -0.1065 
      7 C6          3.9030   -8.8042   -2.8612 C.ar      1 CRI        -0.1445 
      8 C7          3.9301   -8.0429   -1.6928 C.ar      1 CRI         0.1329 
      9 C8          4.5385   -6.7877   -1.6922 C.ar      1 CRI        -0.0076 
     10 Cl1         4.5527   -5.8733   -0.2265 Cl        1 CRI        -0.0576 
     11 F1          3.3670   -8.5335   -0.5790 F         1 CRI        -0.1200 
     12 Cl2         5.8000   -6.4833   -5.4966 Cl        1 CRI        -0.0784 
     13 O1          5.6458   -4.3741   -4.1612 O.3       1 CRI        -0.3269 
     14 C9          4.9305   -3.2236   -4.2608 C.ar      1 CRI        -0.0524 
     15 C10         5.4830   -2.0499   -4.7478 C.ar      1 CRI         0.6229 
     16 N1          4.8057   -0.8858   -4.8640 N.2       1 CRI        -0.7111 
     17 C11         3.5127   -0.9017   -4.4695 C.ar      1 CRI         0.4198 
     18 C12         2.8679   -2.0214   -3.9692 C.ar      1 CRI        -0.1327 
     19 C13         3.5974   -3.2007   -3.8665 C.ar      1 CRI        -0.1135 
     20 C14         1.4955   -1.9661   -3.5710 C.ar      1 CRI        -0.2022 
     21 C15         0.9471   -2.7698   -2.5536 C.ar      1 CRI        -0.1366 
     22 N2         -0.3543   -2.5397   -2.3598 N.pl3     1 CRI         0.0909 
     23 N3         -0.6323   -1.5826   -3.2614 N.2       1 CRI        -0.5022 
     24 C16         0.4414   -1.2041   -4.0122 C.ar      1 CRI         0.2996 
     25 C17        -1.3456   -3.1114   -1.4425 C.3       1 CRI         0.0752 
     26 C18        -1.8617   -2.0913   -0.4155 C.3       1 CRI        -0.0883 
     27 C19        -2.9072   -2.7232    0.5034 C.3       1 CRI         0.1632 
     28 N4         -4.0106   -3.3070   -0.2601 N.4       1 CRI        -0.8201 
     29 C20        -3.5377   -4.3379   -1.1849 C.3       1 CRI         0.1632 
     30 C21        -2.5201   -3.7764   -2.1776 C.3       1 CRI        -0.0883 
     31 N5          6.8425   -2.0724   -5.1486 N.2       1 CRI        -0.9136 
     32 H2          7.6866   -3.9944   -2.5168 H         1 CRI         0.0562 
     33 H3          7.7808   -5.6385   -3.2342 H         1 CRI         0.0562 
     34 H4          7.3695   -5.4388   -1.4970 H         1 CRI         0.0562 
     35 H5          4.4543   -8.9165   -4.9313 H         1 CRI         0.1580 
     36 H6          3.4295   -9.7817   -2.8613 H         1 CRI         0.1617 
     37 H7          3.0177   -0.0373   -4.5575 H         1 CRI         0.0209 
     38 H8          3.1669   -4.0302   -3.5108 H         1 CRI         0.1466 
     39 H9          1.5258   -3.4237   -2.0663 H         1 CRI         0.1775 
     40 H10         0.3377   -0.4982   -4.7129 H         1 CRI         0.0414 
     41 H11        -0.7623   -3.8845   -0.9209 H         1 CRI         0.0542 
     42 H12        -1.0224   -1.7323    0.1982 H         1 CRI         0.0668 
     43 H13        -2.3210   -1.2415   -0.9417 H         1 CRI         0.0668 
     44 H14        -2.4377   -3.5191    1.1002 H         1 CRI         0.0312 
     45 H15        -3.3173   -1.9547    1.1751 H         1 CRI         0.0312 
     46 H16        -4.7330   -3.7652    0.4315 H         1 CRI         0.3684 
     47 H17        -3.0585   -5.1485   -0.6164 H         1 CRI         0.0312 
     48 H18        -4.3901   -4.7414   -1.7512 H         1 CRI         0.0312 
     49 H19        -3.0213   -3.0334   -2.8154 H         1 CRI         0.0668 
     50 H20        -2.1431   -4.6003   -2.8013 H         1 CRI         0.0668 
     51 H21         7.2593   -1.2564   -5.5491 H         1 CRI         0.4117 
     52 H52        -4.5102   -2.5194   -0.8432 H         1 CRI         0.0000 
@<TRIPOS>BOND
     1    1    2 1    
     2    1   32 1    
     3    1   33 1    
     4    1   34 1    
     5    2    3 1    
     6    2    4 1    
     7    2   13 1    
     8    4    9 ar   
     9    4    5 ar   
    10    5    6 ar   
    11    5   12 1    
    12    6    7 ar   
    13    6   35 1    
    14    7    8 ar   
    15    7   36 1    
    16    8    9 ar   
    17    8   11 1    
    18    9   10 1    
    19   13   14 1    
    20   14   19 ar   
    21   14   15 ar   
    22   15   16 ar   
    23   15   31 2    
    24   16   17 ar   
    25   17   18 ar   
    26   17   37 1    
    27   18   19 ar   
    28   18   20 1    
    29   19   38 1    
    30   20   24 ar   
    31   20   21 ar   
    32   21   22 ar   
    33   21   39 1    
    34   22   23 ar   
    35   22   25 1    
    36   23   24 ar   
    37   24   40 1    
    38   25   30 1    
    39   25   26 1    
    40   25   41 1    
    41   26   27 1    
    42   26   42 1    
    43   26   43 1    
    44   27   28 1    
    45   27   44 1    
    46   27   45 1    
    47   28   29 1    
    48   28   46 1    
    49   28   52 1    
    50   29   30 1    
    51   29   47 1    
    52   29   48 1    
    53   30   49 1    
    54   30   50 1    
    55   31   51 1    
@<TRIPOS>SUBSTRUCTURE
     1 CRI         1 GROUP             0       ****    0 ROOT    
