@<TRIPOS>MOLECULE
~{N}-(4-bromo-2-fluoro-phenyl)-6-methoxy-7-[(1-methylpiperidin-1-ium-4-yl)methoxy]quinazolin-4-amine
   55    58     1     0     0
SMALL
USER_CHARGES

@<TRIPOS>ATOM
      1 CAK       -24.7180   15.9440  -13.5580 C.3       1 ZD6        -0.1090
      2 CAM       -25.7020   17.0870  -13.8320 C.3       1 ZD6         0.1152
      3 NBD       -26.2030   17.7320  -12.5940 N.4       1 ZD6        -0.6874
      4 CAB       -27.4570   18.3970  -13.0000 C.3       1 ZD6         0.0847
      5 CAN       -26.5680   16.8090  -11.4740 C.3       1 ZD6         0.1152
      6 CAL       -25.5690   15.6640  -11.2790 C.3       1 ZD6        -0.1090
      7 CBC       -25.3260   14.9310  -12.6030 C.3       1 ZD6        -0.0898
      8 CAO       -24.3860   13.7480  -12.4120 C.3       1 ZD6         0.1357
      9 OAT       -25.2360   12.7490  -11.8890 O.3       1 ZD6        -0.3460
     10 CAY       -24.7110   11.5090  -11.6510 C.ar      1 ZD6         0.0913
     11 CAI       -23.4910   11.0850  -12.1470 C.ar      1 ZD6        -0.1845
     12 CAX       -25.4780   10.6560  -10.8760 C.ar      1 ZD6         0.0633
     13 OAS       -26.6870   11.1670  -10.4240 O.3       1 ZD6        -0.3437
     14 CAA       -27.4710   10.3950   -9.4870 C.3       1 ZD6         0.1144
     15 CAJ       -25.0110    9.3620  -10.6100 C.ar      1 ZD6        -0.0952
     16 C5        -23.7810    8.9280  -11.1150 C.ar      1 ZD6        -0.2900
     17 C4        -23.0220    9.8090  -11.8810 C.ar      1 ZD6         0.4452
     18 N3        -21.8320    9.4110  -12.3880 N.ar      1 ZD6        -0.7210
     19 C2        -21.3750    8.1890  -12.1470 C.ar      1 ZD6         0.6875
     20 N1        -22.0560    7.3300  -11.3960 N.ar      1 ZD6        -0.7351
     21 C6        -23.2590    7.6280  -10.8610 C.ar      1 ZD6         0.7051
     22 NAR       -23.9250    6.7030  -10.1070 N.pl3     1 ZD6        -0.7126
     23 CAW       -23.3720    5.5440   -9.7250 C.ar      1 ZD6         0.0860
     24 CAF       -23.9300    4.3280  -10.1020 C.ar      1 ZD6        -0.1399
     25 CAE       -23.3500    3.1360   -9.6690 C.ar      1 ZD6        -0.1062
     26 CAU       -22.2060    3.1830   -8.8660 C.ar      1 ZD6        -0.0041
     27 BR        -21.2440    1.6690   -8.1950 Br        1 ZD6        -0.0555
     28 CAH       -21.6680    4.3850   -8.4980 C.ar      1 ZD6        -0.1353
     29 CAV       -22.2400    5.5370   -8.9180 C.ar      1 ZD6         0.1641
     30 FAC       -21.6330    6.6400   -8.4830 F         1 ZD6        -0.1089
     31 HAK1      -24.4709   15.4384  -14.5032 H         1 ZD6         0.0919
     32 HAK2      -23.7999   16.3504  -13.1086 H         1 ZD6         0.0919
     33 HAM1      -25.2052   17.8620  -14.4341 H         1 ZD6         0.1040
     34 HAM2      -26.5723   16.6980  -14.3809 H         1 ZD6         0.1040
     35 HAB1      -27.8999   18.9061  -12.1313 H         1 ZD6         0.1047
     36 HAB2      -28.1628   17.6457  -13.3839 H         1 ZD6         0.1047
     37 HAB3      -27.2426   19.1347  -13.7873 H         1 ZD6         0.1047
     38 HAN1      -26.6100   17.3747  -10.5316 H         1 ZD6         0.1040
     39 HAN2      -27.5512   16.3588  -11.6755 H         1 ZD6         0.1040
     40 HAL1      -24.6134   16.0692  -10.9147 H         1 ZD6         0.0919
     41 HAL2      -25.9686   14.9500  -10.5438 H         1 ZD6         0.0919
     42 HBC       -26.2657   14.5256  -13.0062 H         1 ZD6         0.0866
     43 HAO1      -23.9491   13.4666  -13.3815 H         1 ZD6         0.0623
     44 HAO2      -23.5823   14.0271  -11.7148 H         1 ZD6         0.0623
     45 HAI       -22.8970   11.7570  -12.7490 H         1 ZD6         0.1626
     46 HAA1      -28.3903   10.9451   -9.2375 H         1 ZD6         0.0468
     47 HAA2      -26.8854   10.2252   -8.5714 H         1 ZD6         0.0468
     48 HAA3      -27.7339    9.4272   -9.9389 H         1 ZD6         0.0468
     49 HAJ       -25.6070    8.6920  -10.0080 H         1 ZD6         0.1480
     50 H2        -20.4290    7.8860  -12.5700 H         1 ZD6         0.0659
     51 HAF       -24.8100    4.3060  -10.7280 H         1 ZD6         0.1386
     52 HAE       -23.7800    2.1860   -9.9510 H         1 ZD6         0.1569
     53 HAH       -20.7880    4.4150   -7.8730 H         1 ZD6         0.1715
     54 H54       -24.9600    6.8956   -9.7880 H         1 ZD6         0.4277
     55 H55       -25.3990   18.3814  -12.2172 H         1 ZD6         0.4451
@<TRIPOS>BOND
     1    1    2 1
     2    1    7 1
     3    1   31 1
     4    1   32 1
     5    2    3 1
     6    2   33 1
     7    2   34 1
     8    3    4 1
     9    3    5 1
    10    3   55 1
    11    4   35 1
    12    4   36 1
    13    4   37 1
    14    5    6 1
    15    5   38 1
    16    5   39 1
    17    6    7 1
    18    6   40 1
    19    6   41 1
    20    7    8 1
    21    7   42 1
    22    8    9 1
    23    8   43 1
    24    8   44 1
    25    9   10 1
    26   10   11 ar
    27   10   12 ar
    28   11   17 ar
    29   11   45 1
    30   12   13 1
    31   12   15 ar
    32   13   14 1
    33   14   46 1
    34   14   47 1
    35   14   48 1
    36   15   16 ar
    37   15   49 1
    38   16   17 ar
    39   16   21 ar
    40   17   18 ar
    41   18   19 ar
    42   19   20 ar
    43   19   50 1
    44   20   21 ar
    45   21   22 1
    46   22   23 1
    47   22   54 1
    48   23   24 ar
    49   23   29 ar
    50   24   25 ar
    51   24   51 1
    52   25   26 ar
    53   25   52 1
    54   26   27 1
    55   26   28 ar
    56   28   29 ar
    57   28   53 1
    58   29   30 1
@<TRIPOS>SUBSTRUCTURE
     1 ZD6         1 GROUP   0 A     ****
