ZD6
  CCTOOLS-0502160703

 54 57  0  0  0  0  0  0  0  0999 V2000
  -24.7180   15.9440  -13.5580 C   0  0  0  0  0
  -25.7020   17.0870  -13.8320 C   0  0  0  0  0
  -26.2030   17.7320  -12.5940 N   0  0  0  0  0
  -27.4570   18.3970  -13.0000 C   0  0  0  0  0
  -26.5680   16.8090  -11.4740 C   0  0  0  0  0
  -25.5690   15.6640  -11.2790 C   0  0  0  0  0
  -25.3260   14.9310  -12.6030 C   0  0  0  0  0
  -24.3860   13.7480  -12.4120 C   0  0  0  0  0
  -25.2360   12.7490  -11.8890 O   0  0  0  0  0
  -24.7110   11.5090  -11.6510 C   0  0  0  0  0
  -23.4910   11.0850  -12.1470 C   0  0  0  0  0
  -25.4780   10.6560  -10.8760 C   0  0  0  0  0
  -26.6870   11.1670  -10.4240 O   0  0  0  0  0
  -27.4710   10.3950   -9.4870 C   0  0  0  0  0
  -25.0110    9.3620  -10.6100 C   0  0  0  0  0
  -23.7810    8.9280  -11.1150 C   0  0  0  0  0
  -23.0220    9.8090  -11.8810 C   0  0  0  0  0
  -21.8320    9.4110  -12.3880 N   0  0  0  0  0
  -21.3750    8.1890  -12.1470 C   0  0  0  0  0
  -22.0560    7.3300  -11.3960 N   0  0  0  0  0
  -23.2590    7.6280  -10.8610 C   0  0  0  0  0
  -23.9250    6.7030  -10.1070 N   0  0  0  0  0
  -23.3720    5.5440   -9.7250 C   0  0  0  0  0
  -23.9300    4.3280  -10.1020 C   0  0  0  0  0
  -23.3500    3.1360   -9.6690 C   0  0  0  0  0
  -22.2060    3.1830   -8.8660 C   0  0  0  0  0
  -21.2440    1.6690   -8.1950 BR  0  0  0  0  0
  -21.6680    4.3850   -8.4980 C   0  0  0  0  0
  -22.2400    5.5370   -8.9180 C   0  0  0  0  0
  -21.6330    6.6400   -8.4830 F   0  0  0  0  0
  -23.8080   16.3610  -13.1010 H   0  0  0  0  0
  -24.4750   15.4430  -14.5070 H   0  0  0  0  0
  -26.5690   16.6580  -14.3550 H   0  0  0  0  0
  -25.1860   17.8500  -14.4340 H   0  0  0  0  0
  -27.9930   17.7600  -13.7190 H   0  0  0  0  0
  -27.2240   19.3640  -13.4700 H   0  0  0  0  0
  -28.0880   18.5620  -12.1140 H   0  0  0  0  0
  -27.5380   16.3570  -11.7260 H   0  0  0  0  0
  -26.6040   17.3950  -10.5440 H   0  0  0  0  0
  -25.9810   14.9520  -10.5490 H   0  0  0  0  0
  -24.6160   16.0750  -10.9150 H   0  0  0  0  0
  -26.2690   14.5270  -12.9990 H   0  0  0  0  0
  -23.5340   13.9760  -11.7550 H   0  0  0  0  0
  -23.9270   13.4350  -13.3620 H   0  0  0  0  0
  -22.8970   11.7570  -12.7490 H   0  0  0  0  0
  -27.7590    9.4400   -9.9500 H   0  0  0  0  0
  -28.3750   10.9590   -9.2140 H   0  0  0  0  0
  -26.8750   10.1990   -8.5840 H   0  0  0  0  0
  -25.6070    8.6920  -10.0080 H   0  0  0  0  0
  -21.2940   10.0420  -12.9470 H   0  0  0  0  0
  -20.4290    7.8860  -12.5700 H   0  0  0  0  0
  -24.8100    4.3060  -10.7280 H   0  0  0  0  0
  -23.7800    2.1860   -9.9510 H   0  0  0  0  0
  -20.7880    4.4150   -7.8730 H   0  0  0  0  0
  1  2  1  0  0  0
  1  7  1  0  0  0
  1 31  1  0  0  0
  1 32  1  0  0  0
  2  3  1  0  0  0
  2 33  1  0  0  0
  2 34  1  0  0  0
  3  4  1  0  0  0
  3  5  1  0  0  0
  4 35  1  0  0  0
  4 36  1  0  0  0
  4 37  1  0  0  0
  5  6  1  0  0  0
  5 38  1  0  0  0
  5 39  1  0  0  0
  6  7  1  0  0  0
  6 40  1  0  0  0
  6 41  1  0  0  0
  7  8  1  0  0  0
  7 42  1  0  0  0
  8  9  1  0  0  0
  8 43  1  0  0  0
  8 44  1  0  0  0
  9 10  1  0  0  0
 10 11  2  0  0  0
 10 12  1  0  0  0
 11 17  1  0  0  0
 11 45  1  0  0  0
 12 13  1  0  0  0
 12 15  2  0  0  0
 13 14  1  0  0  0
 14 46  1  0  0  0
 14 47  1  0  0  0
 14 48  1  0  0  0
 15 16  1  0  0  0
 15 49  1  0  0  0
 16 17  2  0  0  0
 16 21  1  0  0  0
 17 18  1  0  0  0
 18 19  1  0  0  0
 18 50  1  0  0  0
 19 20  2  0  0  0
 19 51  1  0  0  0
 20 21  1  0  0  0
 21 22  2  0  0  0
 22 23  1  0  0  0
 23 24  2  0  0  0
 23 29  1  0  0  0
 24 25  1  0  0  0
 24 52  1  0  0  0
 25 26  2  0  0  0
 25 53  1  0  0  0
 26 27  1  0  0  0
 26 28  1  0  0  0
 28 29  2  0  0  0
 28 54  1  0  0  0
 29 30  1  0  0  0
M  END
$$$$
