@<TRIPOS>MOLECULE
ZD6
   54    57     1     0     0
SMALL
NO_CHARGES

@<TRIPOS>ATOM
      1  CAK      -24.7180   15.9440  -13.5580 C.3       1 ZD6         0.0000
      2  CAM      -25.7020   17.0870  -13.8320 C.3       1 ZD6         0.0000
      3  NBD      -26.2030   17.7320  -12.5940 N.3       1 ZD6         0.0000
      4  CAB      -27.4570   18.3970  -13.0000 C.3       1 ZD6         0.0000
      5  CAN      -26.5680   16.8090  -11.4740 C.3       1 ZD6         0.0000
      6  CAL      -25.5690   15.6640  -11.2790 C.3       1 ZD6         0.0000
      7  CBC      -25.3260   14.9310  -12.6030 C.3       1 ZD6         0.0000
      8  CAO      -24.3860   13.7480  -12.4120 C.3       1 ZD6         0.0000
      9  OAT      -25.2360   12.7490  -11.8890 O.3       1 ZD6         0.0000
     10  CAY      -24.7110   11.5090  -11.6510 C.ar      1 ZD6         0.0000
     11  CAI      -23.4910   11.0850  -12.1470 C.ar      1 ZD6         0.0000
     12  CAX      -25.4780   10.6560  -10.8760 C.ar      1 ZD6         0.0000
     13  OAS      -26.6870   11.1670  -10.4240 O.3       1 ZD6         0.0000
     14  CAA      -27.4710   10.3950   -9.4870 C.3       1 ZD6         0.0000
     15  CAJ      -25.0110    9.3620  -10.6100 C.ar      1 ZD6         0.0000
     16  C5       -23.7810    8.9280  -11.1150 C.ar      1 ZD6         0.0000
     17  C4       -23.0220    9.8090  -11.8810 C.ar      1 ZD6         0.0000
     18  N3       -21.8320    9.4110  -12.3880 N.pl3     1 ZD6         0.0000
     19  C2       -21.3750    8.1890  -12.1470 C.ar      1 ZD6         0.0000
     20  N1       -22.0560    7.3300  -11.3960 N.ar      1 ZD6         0.0000
     21  C6       -23.2590    7.6280  -10.8610 C.ar      1 ZD6         0.0000
     22  NAR      -23.9250    6.7030  -10.1070 N.2       1 ZD6         0.0000
     23  CAW      -23.3720    5.5440   -9.7250 C.ar      1 ZD6         0.0000
     24  CAF      -23.9300    4.3280  -10.1020 C.ar      1 ZD6         0.0000
     25  CAE      -23.3500    3.1360   -9.6690 C.ar      1 ZD6         0.0000
     26  CAU      -22.2060    3.1830   -8.8660 C.ar      1 ZD6         0.0000
     27 BR        -21.2440    1.6690   -8.1950 Br        1 ZD6         0.0000
     28  CAH      -21.6680    4.3850   -8.4980 C.ar      1 ZD6         0.0000
     29  CAV      -22.2400    5.5370   -8.9180 C.ar      1 ZD6         0.0000
     30  FAC      -21.6330    6.6400   -8.4830 F         1 ZD6         0.0000
     31 HAK1      -23.8080   16.3610  -13.1010 H         1 ZD6         0.0000
     32 HAK2      -24.4750   15.4430  -14.5070 H         1 ZD6         0.0000
     33 HAM1      -26.5690   16.6580  -14.3550 H         1 ZD6         0.0000
     34 HAM2      -25.1860   17.8500  -14.4340 H         1 ZD6         0.0000
     35 HAB1      -27.9930   17.7600  -13.7190 H         1 ZD6         0.0000
     36 HAB2      -27.2240   19.3640  -13.4700 H         1 ZD6         0.0000
     37 HAB3      -28.0880   18.5620  -12.1140 H         1 ZD6         0.0000
     38 HAN1      -27.5380   16.3570  -11.7260 H         1 ZD6         0.0000
     39 HAN2      -26.6040   17.3950  -10.5440 H         1 ZD6         0.0000
     40 HAL1      -25.9810   14.9520  -10.5490 H         1 ZD6         0.0000
     41 HAL2      -24.6160   16.0750  -10.9150 H         1 ZD6         0.0000
     42  HBC      -26.2690   14.5270  -12.9990 H         1 ZD6         0.0000
     43 HAO1      -23.5340   13.9760  -11.7550 H         1 ZD6         0.0000
     44 HAO2      -23.9270   13.4350  -13.3620 H         1 ZD6         0.0000
     45  HAI      -22.8970   11.7570  -12.7490 H         1 ZD6         0.0000
     46 HAA1      -27.7590    9.4400   -9.9500 H         1 ZD6         0.0000
     47 HAA2      -28.3750   10.9590   -9.2140 H         1 ZD6         0.0000
     48 HAA3      -26.8750   10.1990   -8.5840 H         1 ZD6         0.0000
     49  HAJ      -25.6070    8.6920  -10.0080 H         1 ZD6         0.0000
     50  H3       -21.2940   10.0420  -12.9470 H         1 ZD6         0.0000
     51  H2       -20.4290    7.8860  -12.5700 H         1 ZD6         0.0000
     52  HAF      -24.8100    4.3060  -10.7280 H         1 ZD6         0.0000
     53  HAE      -23.7800    2.1860   -9.9510 H         1 ZD6         0.0000
     54  HAH      -20.7880    4.4150   -7.8730 H         1 ZD6         0.0000
@<TRIPOS>BOND
     1    1    2 1
     2    1    7 1
     3    1   31 1
     4    1   32 1
     5    2    3 1
     6    2   33 1
     7    2   34 1
     8    3    4 1
     9    3    5 1
    10    4   35 1
    11    4   36 1
    12    4   37 1
    13    5    6 1
    14    5   38 1
    15    5   39 1
    16    6    7 1
    17    6   40 1
    18    6   41 1
    19    7    8 1
    20    7   42 1
    21    8    9 1
    22    8   43 1
    23    8   44 1
    24    9   10 1
    25   10   11 ar
    26   10   12 ar
    27   11   17 ar
    28   11   45 1
    29   12   13 1
    30   12   15 ar
    31   13   14 1
    32   14   46 1
    33   14   47 1
    34   14   48 1
    35   15   16 ar
    36   15   49 1
    37   16   17 ar
    38   16   21 ar
    39   17   18 ar
    40   18   19 ar
    41   18   50 1
    42   19   20 ar
    43   19   51 1
    44   20   21 ar
    45   21   22 2
    46   22   23 1
    47   23   24 ar
    48   23   29 ar
    49   24   25 ar
    50   24   52 1
    51   25   26 ar
    52   25   53 1
    53   26   27 1
    54   26   28 ar
    55   28   29 ar
    56   28   54 1
    57   29   30 1
@<TRIPOS>SUBSTRUCTURE
     1 ZD6         1 GROUP 0 A     ****
