~{N}-(4-bromo-2-fluoro-phenyl)-6-methoxy-7-[(1-methyl-4-piperidyl)methoxy]quinazolin-4-amine
                    3D
 Structure written by MMmdl.
 55 58  0  0  1  0            999 V2000
   -4.2580    2.1727    4.1722 C   0  0  0  0  0  0
   -3.2639    1.7688    3.1780 N   0  3  1  0  0  0
   -3.7533    2.0438    1.8205 C   0  0  0  0  0  0
   -2.7473    1.5773    0.7662 C   0  0  0  0  0  0
   -1.3739    2.2214    0.9831 C   0  0  1  0  0  0
   -0.9170    1.9924    2.4278 C   0  0  0  0  0  0
   -1.9837    2.4447    3.4272 C   0  0  0  0  0  0
   -0.3498    1.6772   -0.0090 C   0  0  0  0  0  0
   -0.7964    1.9662   -1.3209 O   0  0  0  0  0  0
   -0.4301    1.0891   -2.3119 C   0  0  0  0  0  0
    0.9270    0.8759   -2.5709 C   0  0  0  0  0  0
    1.3500   -0.0031   -3.5650 C   0  0  0  0  0  0
    0.3657   -0.6759   -4.3072 C   0  0  0  0  0  0
   -1.0010   -0.4670   -4.0528 C   0  0  0  0  0  0
   -1.3954    0.4170   -3.0533 C   0  0  0  0  0  0
   -2.7205    0.6146   -2.8122 O   0  0  0  0  0  0
   -3.3645    1.6578   -3.5418 C   0  0  0  0  0  0
    0.8268   -1.5457   -5.2913 C   0  0  0  0  0  0
    2.1298   -1.7617   -5.5527 N   0  0  0  0  0  0
    2.9785   -1.0642   -4.7807 C   0  0  0  0  0  0
    2.6598   -0.1955   -3.7997 N   0  0  0  0  0  0
   -0.1081   -2.2602   -6.0811 N   0  0  0  0  0  0
   -0.0537   -3.5136   -6.7111 C   0  0  0  0  0  0
    0.7242   -4.5337   -6.1632 C   0  0  0  0  0  0
    0.7799   -5.7800   -6.7871 C   0  0  0  0  0  0
    0.0578   -6.0063   -7.9589 C   0  0  0  0  0  0
   -0.7200   -4.9862   -8.5068 C   0  0  0  0  0  0
   -0.7757   -3.7398   -7.8829 C   0  0  0  0  0  0
   -1.5263   -2.7665   -8.4181 F   0  0  0  0  0  0
    0.1333   -7.6948   -8.8043 Br  0  0  0  0  0  0
   -5.2087    1.6576    3.9703 H   0  0  0  0  0  0
   -4.4113    3.2605    4.1164 H   0  0  0  0  0  0
   -3.9015    1.9037    5.1774 H   0  0  0  0  0  0
   -4.7033    1.5134    1.6588 H   0  0  0  0  0  0
   -3.9123    3.1256    1.7002 H   0  0  0  0  0  0
   -2.6344    0.4847    0.8252 H   0  0  0  0  0  0
   -3.1097    1.8549   -0.2346 H   0  0  0  0  0  0
   -1.4560    3.3035    0.8032 H   0  0  0  0  0  0
   -0.7220    0.9213    2.5853 H   0  0  0  0  0  0
    0.0036    2.5642    2.6162 H   0  0  0  0  0  0
   -2.1181    3.5321    3.3296 H   0  0  0  0  0  0
   -1.6358    2.2080    4.4436 H   0  0  0  0  0  0
    0.6242    2.1562    0.1697 H   0  0  0  0  0  0
   -0.2532    0.5895    0.1232 H   0  0  0  0  0  0
    1.6683    1.4114   -1.9797 H   0  0  0  0  0  0
   -1.7694   -0.9838   -4.6228 H   0  0  0  0  0  0
   -4.4245    1.7075   -3.2521 H   0  0  0  0  0  0
   -3.2883    1.4524   -4.6198 H   0  0  0  0  0  0
   -2.8773    2.6178   -3.3161 H   0  0  0  0  0  0
    4.0353   -1.2147   -4.9648 H   0  0  0  0  0  0
   -1.0954   -1.8242   -6.2937 H   0  0  0  0  0  0
    1.2909   -4.3682   -5.2505 H   0  0  0  0  0  0
    1.3907   -6.5642   -6.3473 H   0  0  0  0  0  0
   -1.2887   -5.1457   -9.4192 H   0  0  0  0  0  0
   -3.1012    0.6847    3.2693 H   0  0  0  0  0  0
  1  2  1  0  0  0
  1 31  1  0  0  0
  1 32  1  0  0  0
  1 33  1  0  0  0
  2  7  1  0  0  0
  2  3  1  0  0  0
  2 55  1  0  0  0
  3  4  1  0  0  0
  3 34  1  0  0  0
  3 35  1  0  0  0
  4  5  1  0  0  0
  4 36  1  0  0  0
  4 37  1  0  0  0
  5  6  1  0  0  0
  5  8  1  0  0  0
  5 38  1  0  0  0
  6  7  1  0  0  0
  6 39  1  0  0  0
  6 40  1  0  0  0
  7 41  1  0  0  0
  7 42  1  0  0  0
  8  9  1  0  0  0
  8 43  1  0  0  0
  8 44  1  0  0  0
  9 10  1  0  0  0
 10 15  2  0  0  0
 10 11  1  0  0  0
 11 12  2  0  0  0
 11 45  1  0  0  0
 12 21  1  0  0  0
 12 13  1  0  0  0
 13 14  2  0  0  0
 13 18  1  0  0  0
 14 15  1  0  0  0
 14 46  1  0  0  0
 15 16  1  0  0  0
 16 17  1  0  0  0
 17 47  1  0  0  0
 17 48  1  0  0  0
 17 49  1  0  0  0
 18 19  2  0  0  0
 18 22  1  0  0  0
 19 20  1  0  0  0
 20 21  2  0  0  0
 20 50  1  0  0  0
 22 23  1  0  0  0
 22 51  1  0  0  0
 23 28  2  0  0  0
 23 24  1  0  0  0
 24 25  2  0  0  0
 24 52  1  0  0  0
 25 26  1  0  0  0
 25 53  1  0  0  0
 26 27  2  0  0  0
 26 30  1  0  0  0
 27 28  1  0  0  0
 27 54  1  0  0  0
 28 29  1  0  0  0
M  CHG  1   2   1
M  END
> <s_m_source_file>
/Users/choderaj/github/choderalab/mcce-charges/mcce-charges.jchodera/epik_inhibitors/output/Vandetanib/Vandetanib-input.mol2

> <i_m_source_file_index>
1

> <r_lp_tautomer_probability>
0.999978000241998

> <r_epik_Ionization_Penalty>
  0.0044

> <r_epik_Ionization_Penalty_Charging>
  0.0039

> <r_epik_Ionization_Penalty_Neutral>
  0.0005

> <r_epik_State_Penalty>
  0.0034

> <i_epik_Tot_Q>
1

$$$$
~{N}-(4-bromo-2-fluoro-phenyl)-6-methoxy-7-[(1-methyl-4-piperidyl)methoxy]quinazolin-4-amine
                    3D
 Structure written by MMmdl.
 54 57  0  0  1  0            999 V2000
   -4.2580    2.1727    4.1722 C   0  0  0  0  0  0
   -3.2639    1.7688    3.1780 N   0  0  0  0  0  0
   -3.7533    2.0438    1.8205 C   0  0  0  0  0  0
   -2.7473    1.5773    0.7662 C   0  0  0  0  0  0
   -1.3739    2.2214    0.9831 C   0  0  0  0  0  0
   -0.9170    1.9924    2.4278 C   0  0  0  0  0  0
   -1.9837    2.4447    3.4272 C   0  0  0  0  0  0
   -0.3498    1.6772   -0.0090 C   0  0  0  0  0  0
   -0.7964    1.9662   -1.3209 O   0  0  0  0  0  0
   -0.4301    1.0891   -2.3119 C   0  0  0  0  0  0
    0.9270    0.8759   -2.5709 C   0  0  0  0  0  0
    1.3500   -0.0031   -3.5650 C   0  0  0  0  0  0
    0.3657   -0.6759   -4.3072 C   0  0  0  0  0  0
   -1.0010   -0.4670   -4.0528 C   0  0  0  0  0  0
   -1.3954    0.4170   -3.0533 C   0  0  0  0  0  0
   -2.7205    0.6146   -2.8122 O   0  0  0  0  0  0
   -3.3645    1.6578   -3.5418 C   0  0  0  0  0  0
    0.8268   -1.5457   -5.2913 C   0  0  0  0  0  0
    2.1298   -1.7617   -5.5527 N   0  0  0  0  0  0
    2.9785   -1.0642   -4.7807 C   0  0  0  0  0  0
    2.6598   -0.1955   -3.7997 N   0  0  0  0  0  0
   -0.1081   -2.2602   -6.0811 N   0  0  0  0  0  0
   -0.0537   -3.5136   -6.7111 C   0  0  0  0  0  0
    0.7242   -4.5337   -6.1632 C   0  0  0  0  0  0
    0.7799   -5.7800   -6.7871 C   0  0  0  0  0  0
    0.0578   -6.0063   -7.9589 C   0  0  0  0  0  0
   -0.7200   -4.9862   -8.5068 C   0  0  0  0  0  0
   -0.7757   -3.7398   -7.8829 C   0  0  0  0  0  0
   -1.5263   -2.7665   -8.4181 F   0  0  0  0  0  0
    0.1333   -7.6948   -8.8043 Br  0  0  0  0  0  0
   -5.2087    1.6576    3.9703 H   0  0  0  0  0  0
   -4.4113    3.2605    4.1164 H   0  0  0  0  0  0
   -3.9015    1.9037    5.1774 H   0  0  0  0  0  0
   -4.7033    1.5134    1.6588 H   0  0  0  0  0  0
   -3.9123    3.1256    1.7002 H   0  0  0  0  0  0
   -2.6344    0.4847    0.8252 H   0  0  0  0  0  0
   -3.1097    1.8549   -0.2346 H   0  0  0  0  0  0
   -1.4560    3.3035    0.8032 H   0  0  0  0  0  0
   -0.7220    0.9213    2.5853 H   0  0  0  0  0  0
    0.0036    2.5642    2.6162 H   0  0  0  0  0  0
   -2.1181    3.5321    3.3296 H   0  0  0  0  0  0
   -1.6358    2.2080    4.4436 H   0  0  0  0  0  0
    0.6242    2.1562    0.1697 H   0  0  0  0  0  0
   -0.2532    0.5895    0.1232 H   0  0  0  0  0  0
    1.6683    1.4114   -1.9797 H   0  0  0  0  0  0
   -1.7694   -0.9838   -4.6228 H   0  0  0  0  0  0
   -4.4245    1.7075   -3.2521 H   0  0  0  0  0  0
   -3.2883    1.4524   -4.6198 H   0  0  0  0  0  0
   -2.8773    2.6178   -3.3161 H   0  0  0  0  0  0
    4.0353   -1.2147   -4.9648 H   0  0  0  0  0  0
   -1.0954   -1.8242   -6.2937 H   0  0  0  0  0  0
    1.2909   -4.3682   -5.2505 H   0  0  0  0  0  0
    1.3907   -6.5642   -6.3473 H   0  0  0  0  0  0
   -1.2887   -5.1457   -9.4192 H   0  0  0  0  0  0
  1  2  1  0  0  0
  1 31  1  0  0  0
  1 32  1  0  0  0
  1 33  1  0  0  0
  2  7  1  0  0  0
  2  3  1  0  0  0
  3  4  1  0  0  0
  3 34  1  0  0  0
  3 35  1  0  0  0
  4  5  1  0  0  0
  4 36  1  0  0  0
  4 37  1  0  0  0
  5  6  1  0  0  0
  5  8  1  0  0  0
  5 38  1  0  0  0
  6  7  1  0  0  0
  6 39  1  0  0  0
  6 40  1  0  0  0
  7 41  1  0  0  0
  7 42  1  0  0  0
  8  9  1  0  0  0
  8 43  1  0  0  0
  8 44  1  0  0  0
  9 10  1  0  0  0
 10 15  2  0  0  0
 10 11  1  0  0  0
 11 12  2  0  0  0
 11 45  1  0  0  0
 12 21  1  0  0  0
 12 13  1  0  0  0
 13 14  2  0  0  0
 13 18  1  0  0  0
 14 15  1  0  0  0
 14 46  1  0  0  0
 15 16  1  0  0  0
 16 17  1  0  0  0
 17 47  1  0  0  0
 17 48  1  0  0  0
 17 49  1  0  0  0
 18 19  2  0  0  0
 18 22  1  0  0  0
 19 20  1  0  0  0
 20 21  2  0  0  0
 20 50  1  0  0  0
 22 23  1  0  0  0
 22 51  1  0  0  0
 23 28  2  0  0  0
 23 24  1  0  0  0
 24 25  2  0  0  0
 24 52  1  0  0  0
 25 26  1  0  0  0
 25 53  1  0  0  0
 26 27  2  0  0  0
 26 30  1  0  0  0
 27 28  1  0  0  0
 27 54  1  0  0  0
 28 29  1  0  0  0
M  END
> <s_m_source_file>
/Users/choderaj/github/choderalab/mcce-charges/mcce-charges.jchodera/epik_inhibitors/output/Vandetanib/Vandetanib-input.mol2

> <i_m_source_file_index>
1

> <r_lp_tautomer_probability>
0.999978000241998

> <r_epik_Ionization_Penalty>
  2.9836

> <r_epik_Ionization_Penalty_Charging>
  0.0000

> <r_epik_Ionization_Penalty_Neutral>
  2.9836

> <r_epik_State_Penalty>
  3.1823

> <i_epik_Tot_Q>
0

$$$$
~{N}-(4-bromo-2-fluoro-phenyl)-6-methoxy-7-[(1-methyl-4-piperidyl)methoxy]quinazolin-4-amine
                    3D
 Structure written by MMmdl.
 56 59  0  0  1  0            999 V2000
   -4.2580    2.1727    4.1722 C   0  0  0  0  0  0
   -3.2639    1.7688    3.1780 N   0  3  1  0  0  0
   -3.7533    2.0438    1.8205 C   0  0  0  0  0  0
   -2.7473    1.5773    0.7662 C   0  0  0  0  0  0
   -1.3739    2.2214    0.9831 C   0  0  1  0  0  0
   -0.9170    1.9924    2.4278 C   0  0  0  0  0  0
   -1.9837    2.4447    3.4272 C   0  0  0  0  0  0
   -0.3498    1.6772   -0.0090 C   0  0  0  0  0  0
   -0.7964    1.9662   -1.3209 O   0  0  0  0  0  0
   -0.4301    1.0891   -2.3119 C   0  0  0  0  0  0
    0.9270    0.8759   -2.5709 C   0  0  0  0  0  0
    1.3500   -0.0031   -3.5650 C   0  0  0  0  0  0
    0.3657   -0.6759   -4.3072 C   0  0  0  0  0  0
   -1.0010   -0.4670   -4.0528 C   0  0  0  0  0  0
   -1.3954    0.4170   -3.0533 C   0  0  0  0  0  0
   -2.7205    0.6146   -2.8122 O   0  0  0  0  0  0
   -3.3645    1.6578   -3.5418 C   0  0  0  0  0  0
    0.8268   -1.5457   -5.2913 C   0  0  0  0  0  0
    2.1298   -1.7617   -5.5527 N   0  0  0  0  0  0
    2.9785   -1.0642   -4.7807 C   0  0  0  0  0  0
    2.6598   -0.1955   -3.7997 N   0  3  0  0  0  0
   -0.1081   -2.2602   -6.0811 N   0  0  0  0  0  0
   -0.0537   -3.5136   -6.7111 C   0  0  0  0  0  0
    0.7242   -4.5337   -6.1632 C   0  0  0  0  0  0
    0.7799   -5.7800   -6.7871 C   0  0  0  0  0  0
    0.0578   -6.0063   -7.9589 C   0  0  0  0  0  0
   -0.7200   -4.9862   -8.5068 C   0  0  0  0  0  0
   -0.7757   -3.7398   -7.8829 C   0  0  0  0  0  0
   -1.5263   -2.7665   -8.4181 F   0  0  0  0  0  0
    0.1333   -7.6948   -8.8043 Br  0  0  0  0  0  0
   -5.2087    1.6576    3.9703 H   0  0  0  0  0  0
   -4.4113    3.2605    4.1164 H   0  0  0  0  0  0
   -3.9015    1.9037    5.1774 H   0  0  0  0  0  0
   -4.7033    1.5134    1.6588 H   0  0  0  0  0  0
   -3.9123    3.1256    1.7002 H   0  0  0  0  0  0
   -2.6344    0.4847    0.8252 H   0  0  0  0  0  0
   -3.1097    1.8549   -0.2346 H   0  0  0  0  0  0
   -1.4560    3.3035    0.8032 H   0  0  0  0  0  0
   -0.7220    0.9213    2.5853 H   0  0  0  0  0  0
    0.0036    2.5642    2.6162 H   0  0  0  0  0  0
   -2.1181    3.5321    3.3296 H   0  0  0  0  0  0
   -1.6358    2.2080    4.4436 H   0  0  0  0  0  0
    0.6242    2.1562    0.1697 H   0  0  0  0  0  0
   -0.2532    0.5895    0.1232 H   0  0  0  0  0  0
    1.6683    1.4114   -1.9797 H   0  0  0  0  0  0
   -1.7694   -0.9838   -4.6228 H   0  0  0  0  0  0
   -4.4245    1.7075   -3.2521 H   0  0  0  0  0  0
   -3.2883    1.4524   -4.6198 H   0  0  0  0  0  0
   -2.8773    2.6178   -3.3161 H   0  0  0  0  0  0
    4.0353   -1.2147   -4.9648 H   0  0  0  0  0  0
   -1.0954   -1.8242   -6.2937 H   0  0  0  0  0  0
    1.2909   -4.3682   -5.2505 H   0  0  0  0  0  0
    1.3907   -6.5642   -6.3473 H   0  0  0  0  0  0
   -1.2887   -5.1457   -9.4192 H   0  0  0  0  0  0
   -3.1012    0.6847    3.2693 H   0  0  0  0  0  0
    3.4104    0.3442   -3.2036 H   0  0  0  0  0  0
  1  2  1  0  0  0
  1 31  1  0  0  0
  1 32  1  0  0  0
  1 33  1  0  0  0
  2  7  1  0  0  0
  2  3  1  0  0  0
  2 55  1  0  0  0
  3  4  1  0  0  0
  3 34  1  0  0  0
  3 35  1  0  0  0
  4  5  1  0  0  0
  4 36  1  0  0  0
  4 37  1  0  0  0
  5  6  1  0  0  0
  5  8  1  0  0  0
  5 38  1  0  0  0
  6  7  1  0  0  0
  6 39  1  0  0  0
  6 40  1  0  0  0
  7 41  1  0  0  0
  7 42  1  0  0  0
  8  9  1  0  0  0
  8 43  1  0  0  0
  8 44  1  0  0  0
  9 10  1  0  0  0
 10 15  2  0  0  0
 10 11  1  0  0  0
 11 12  2  0  0  0
 11 45  1  0  0  0
 12 21  1  0  0  0
 12 13  1  0  0  0
 13 14  2  0  0  0
 13 18  1  0  0  0
 14 15  1  0  0  0
 14 46  1  0  0  0
 15 16  1  0  0  0
 16 17  1  0  0  0
 17 47  1  0  0  0
 17 48  1  0  0  0
 17 49  1  0  0  0
 18 19  2  0  0  0
 18 22  1  0  0  0
 19 20  1  0  0  0
 20 21  2  0  0  0
 20 50  1  0  0  0
 21 56  1  0  0  0
 22 23  1  0  0  0
 22 51  1  0  0  0
 23 28  2  0  0  0
 23 24  1  0  0  0
 24 25  2  0  0  0
 24 52  1  0  0  0
 25 26  1  0  0  0
 25 53  1  0  0  0
 26 27  2  0  0  0
 26 30  1  0  0  0
 27 28  1  0  0  0
 27 54  1  0  0  0
 28 29  1  0  0  0
M  CHG  2   2   1  21   1
M  END
> <s_m_source_file>
/Users/choderaj/github/choderalab/mcce-charges/mcce-charges.jchodera/epik_inhibitors/output/Vandetanib/Vandetanib-input.mol2

> <i_m_source_file_index>
1

> <r_lp_tautomer_probability>
0.993507999998615

> <r_epik_Ionization_Penalty>
  4.1919

> <r_epik_Ionization_Penalty_Charging>
  4.1917

> <r_epik_Ionization_Penalty_Neutral>
  0.0002

> <r_epik_State_Penalty>
  4.0278

> <i_epik_Tot_Q>
2

$$$$
