@<TRIPOS>MOLECULE
~{N}-(4-bromo-2-fluoro-phenyl)-6-methoxy-7-[(1-methyl-4-piperidyl)methoxy]quinazolin-4-amine
55   58    1
SMALL
USER_CHARGES


@<TRIPOS>ATOM
      1 C1         -4.2580    2.1727    4.1722 C.3       1 VAN         0.1544 
      2 N1         -3.2639    1.7688    3.1780 N.4       1 VAN        -0.7257 
      3 C2         -3.7533    2.0438    1.8205 C.3       1 VAN         0.1667 
      4 C3         -2.7473    1.5773    0.7662 C.3       1 VAN        -0.0739 
      5 C4         -1.3739    2.2214    0.9831 C.3       1 VAN        -0.0736 
      6 C5         -0.9170    1.9924    2.4278 C.3       1 VAN        -0.0739 
      7 C6         -1.9837    2.4447    3.4272 C.3       1 VAN         0.1667 
      8 C7         -0.3498    1.6772   -0.0090 C.3       1 VAN         0.1344 
      9 O1         -0.7964    1.9662   -1.3209 O.3       1 VAN        -0.3442 
     10 C8         -0.4301    1.0891   -2.3119 C.ar      1 VAN         0.1176 
     11 C9          0.9270    0.8759   -2.5709 C.ar      1 VAN        -0.1927 
     12 C10         1.3500   -0.0031   -3.5650 C.ar      1 VAN         0.4165 
     13 C11         0.3657   -0.6759   -4.3072 C.ar      1 VAN        -0.2478 
     14 C12        -1.0010   -0.4670   -4.0528 C.ar      1 VAN        -0.0931 
     15 C13        -1.3954    0.4170   -3.0533 C.ar      1 VAN         0.0719 
     16 O2         -2.7205    0.6146   -2.8122 O.3       1 VAN        -0.3354 
     17 C14        -3.3645    1.6578   -3.5418 C.3       1 VAN         0.1166 
     18 C15         0.8268   -1.5457   -5.2913 C.ar      1 VAN         0.6450 
     19 N2          2.1298   -1.7617   -5.5527 N.ar      1 VAN        -0.7206 
     20 C16         2.9785   -1.0642   -4.7807 C.ar      1 VAN         0.6464 
     21 N3          2.6598   -0.1955   -3.7997 N.ar      1 VAN        -0.6772 
     22 N4         -0.1081   -2.2602   -6.0811 N.pl3     1 VAN        -0.7083 
     23 C17        -0.0537   -3.5136   -6.7111 C.ar      1 VAN         0.0987 
     24 C18         0.7242   -4.5337   -6.1632 C.ar      1 VAN        -0.1088 
     25 C19         0.7799   -5.7800   -6.7871 C.ar      1 VAN        -0.1018 
     26 C20         0.0578   -6.0063   -7.9589 C.ar      1 VAN        -0.0203 
     27 C21        -0.7200   -4.9862   -8.5068 C.ar      1 VAN        -0.1205 
     28 C22        -0.7757   -3.7398   -7.8829 C.ar      1 VAN         0.0878 
     29 F1         -1.5263   -2.7665   -8.4181 F         1 VAN        -0.1382 
     30 Br1         0.1333   -7.6948   -8.8043 Br        1 VAN        -0.0739 
     31 H1         -5.2087    1.6576    3.9703 H         1 VAN         0.0315 
     32 H2         -4.4113    3.2605    4.1164 H         1 VAN         0.0315 
     33 H3         -3.9015    1.9037    5.1774 H         1 VAN         0.0315 
     34 H4         -4.7033    1.5134    1.6588 H         1 VAN         0.0311 
     35 H5         -3.9123    3.1256    1.7002 H         1 VAN         0.0311 
     36 H6         -2.6344    0.4847    0.8252 H         1 VAN         0.0515 
     37 H7         -3.1097    1.8549   -0.2346 H         1 VAN         0.0515 
     38 H8         -1.4560    3.3035    0.8032 H         1 VAN         0.0637 
     39 H9         -0.7220    0.9213    2.5853 H         1 VAN         0.0515 
     40 H10         0.0036    2.5642    2.6162 H         1 VAN         0.0515 
     41 H11        -2.1181    3.5321    3.3296 H         1 VAN         0.0311 
     42 H12        -1.6358    2.2080    4.4436 H         1 VAN         0.0311 
     43 H13         0.6242    2.1562    0.1697 H         1 VAN         0.0497 
     44 H14        -0.2532    0.5895    0.1232 H         1 VAN         0.0497 
     45 H15         1.6683    1.4114   -1.9797 H         1 VAN         0.1693 
     46 H16        -1.7694   -0.9838   -4.6228 H         1 VAN         0.1684 
     47 H17        -4.4245    1.7075   -3.2521 H         1 VAN         0.0443 
     48 H18        -3.2883    1.4524   -4.6198 H         1 VAN         0.0443 
     49 H19        -2.8773    2.6178   -3.3161 H         1 VAN         0.0443 
     50 H20         4.0353   -1.2147   -4.9648 H         1 VAN         0.0601 
     51 H21        -1.0954   -1.8242   -6.2937 H         1 VAN         0.4163 
     52 H22         1.2909   -4.3682   -5.2505 H         1 VAN         0.1537 
     53 H23         1.3907   -6.5642   -6.3473 H         1 VAN         0.1541 
     54 H24        -1.2887   -5.1457   -9.4192 H         1 VAN         0.1646 
     55 H55        -3.1012    0.6847    3.2693 H         1 VAN         0.0000 
@<TRIPOS>BOND
     1    1    2 1    
     2    1   31 1    
     3    1   32 1    
     4    1   33 1    
     5    2    7 1    
     6    2    3 1    
     7    2   55 1    
     8    3    4 1    
     9    3   34 1    
    10    3   35 1    
    11    4    5 1    
    12    4   36 1    
    13    4   37 1    
    14    5    6 1    
    15    5    8 1    
    16    5   38 1    
    17    6    7 1    
    18    6   39 1    
    19    6   40 1    
    20    7   41 1    
    21    7   42 1    
    22    8    9 1    
    23    8   43 1    
    24    8   44 1    
    25    9   10 1    
    26   10   15 ar   
    27   10   11 ar   
    28   11   12 ar   
    29   11   45 1    
    30   12   21 ar   
    31   12   13 ar   
    32   13   14 ar   
    33   13   18 ar   
    34   14   15 ar   
    35   14   46 1    
    36   15   16 1    
    37   16   17 1    
    38   17   47 1    
    39   17   48 1    
    40   17   49 1    
    41   18   19 ar   
    42   18   22 1    
    43   19   20 ar   
    44   20   21 ar   
    45   20   50 1    
    46   22   23 1    
    47   22   51 1    
    48   23   28 ar   
    49   23   24 ar   
    50   24   25 ar   
    51   24   52 1    
    52   25   26 ar   
    53   25   53 1    
    54   26   27 ar   
    55   26   30 1    
    56   27   28 ar   
    57   27   54 1    
    58   28   29 1    
@<TRIPOS>SUBSTRUCTURE
     1 VAN         1 GROUP             0       ****    0 ROOT    
@<TRIPOS>MOLECULE
~{N}-(4-bromo-2-fluoro-phenyl)-6-methoxy-7-[(1-methyl-4-piperidyl)methoxy]quinazolin-4-amine
54   57    1
SMALL
USER_CHARGES


@<TRIPOS>ATOM
      1 C1         -4.2580    2.1727    4.1722 C.3       1 VAN         0.1544 
      2 N1         -3.2639    1.7688    3.1780 N.3       1 VAN        -0.7257 
      3 C2         -3.7533    2.0438    1.8205 C.3       1 VAN         0.1667 
      4 C3         -2.7473    1.5773    0.7662 C.3       1 VAN        -0.0739 
      5 C4         -1.3739    2.2214    0.9831 C.3       1 VAN        -0.0736 
      6 C5         -0.9170    1.9924    2.4278 C.3       1 VAN        -0.0739 
      7 C6         -1.9837    2.4447    3.4272 C.3       1 VAN         0.1667 
      8 C7         -0.3498    1.6772   -0.0090 C.3       1 VAN         0.1344 
      9 O1         -0.7964    1.9662   -1.3209 O.3       1 VAN        -0.3442 
     10 C8         -0.4301    1.0891   -2.3119 C.ar      1 VAN         0.1176 
     11 C9          0.9270    0.8759   -2.5709 C.ar      1 VAN        -0.1927 
     12 C10         1.3500   -0.0031   -3.5650 C.ar      1 VAN         0.4165 
     13 C11         0.3657   -0.6759   -4.3072 C.ar      1 VAN        -0.2478 
     14 C12        -1.0010   -0.4670   -4.0528 C.ar      1 VAN        -0.0931 
     15 C13        -1.3954    0.4170   -3.0533 C.ar      1 VAN         0.0719 
     16 O2         -2.7205    0.6146   -2.8122 O.3       1 VAN        -0.3354 
     17 C14        -3.3645    1.6578   -3.5418 C.3       1 VAN         0.1166 
     18 C15         0.8268   -1.5457   -5.2913 C.ar      1 VAN         0.6450 
     19 N2          2.1298   -1.7617   -5.5527 N.ar      1 VAN        -0.7206 
     20 C16         2.9785   -1.0642   -4.7807 C.ar      1 VAN         0.6464 
     21 N3          2.6598   -0.1955   -3.7997 N.ar      1 VAN        -0.6772 
     22 N4         -0.1081   -2.2602   -6.0811 N.pl3     1 VAN        -0.7083 
     23 C17        -0.0537   -3.5136   -6.7111 C.ar      1 VAN         0.0987 
     24 C18         0.7242   -4.5337   -6.1632 C.ar      1 VAN        -0.1088 
     25 C19         0.7799   -5.7800   -6.7871 C.ar      1 VAN        -0.1018 
     26 C20         0.0578   -6.0063   -7.9589 C.ar      1 VAN        -0.0203 
     27 C21        -0.7200   -4.9862   -8.5068 C.ar      1 VAN        -0.1205 
     28 C22        -0.7757   -3.7398   -7.8829 C.ar      1 VAN         0.0878 
     29 F1         -1.5263   -2.7665   -8.4181 F         1 VAN        -0.1382 
     30 Br1         0.1333   -7.6948   -8.8043 Br        1 VAN        -0.0739 
     31 H1         -5.2087    1.6576    3.9703 H         1 VAN         0.0315 
     32 H2         -4.4113    3.2605    4.1164 H         1 VAN         0.0315 
     33 H3         -3.9015    1.9037    5.1774 H         1 VAN         0.0315 
     34 H4         -4.7033    1.5134    1.6588 H         1 VAN         0.0311 
     35 H5         -3.9123    3.1256    1.7002 H         1 VAN         0.0311 
     36 H6         -2.6344    0.4847    0.8252 H         1 VAN         0.0515 
     37 H7         -3.1097    1.8549   -0.2346 H         1 VAN         0.0515 
     38 H8         -1.4560    3.3035    0.8032 H         1 VAN         0.0637 
     39 H9         -0.7220    0.9213    2.5853 H         1 VAN         0.0515 
     40 H10         0.0036    2.5642    2.6162 H         1 VAN         0.0515 
     41 H11        -2.1181    3.5321    3.3296 H         1 VAN         0.0311 
     42 H12        -1.6358    2.2080    4.4436 H         1 VAN         0.0311 
     43 H13         0.6242    2.1562    0.1697 H         1 VAN         0.0497 
     44 H14        -0.2532    0.5895    0.1232 H         1 VAN         0.0497 
     45 H15         1.6683    1.4114   -1.9797 H         1 VAN         0.1693 
     46 H16        -1.7694   -0.9838   -4.6228 H         1 VAN         0.1684 
     47 H17        -4.4245    1.7075   -3.2521 H         1 VAN         0.0443 
     48 H18        -3.2883    1.4524   -4.6198 H         1 VAN         0.0443 
     49 H19        -2.8773    2.6178   -3.3161 H         1 VAN         0.0443 
     50 H20         4.0353   -1.2147   -4.9648 H         1 VAN         0.0601 
     51 H21        -1.0954   -1.8242   -6.2937 H         1 VAN         0.4163 
     52 H22         1.2909   -4.3682   -5.2505 H         1 VAN         0.1537 
     53 H23         1.3907   -6.5642   -6.3473 H         1 VAN         0.1541 
     54 H24        -1.2887   -5.1457   -9.4192 H         1 VAN         0.1646 
@<TRIPOS>BOND
     1    1    2 1    
     2    1   31 1    
     3    1   32 1    
     4    1   33 1    
     5    2    7 1    
     6    2    3 1    
     7    3    4 1    
     8    3   34 1    
     9    3   35 1    
    10    4    5 1    
    11    4   36 1    
    12    4   37 1    
    13    5    6 1    
    14    5    8 1    
    15    5   38 1    
    16    6    7 1    
    17    6   39 1    
    18    6   40 1    
    19    7   41 1    
    20    7   42 1    
    21    8    9 1    
    22    8   43 1    
    23    8   44 1    
    24    9   10 1    
    25   10   15 ar   
    26   10   11 ar   
    27   11   12 ar   
    28   11   45 1    
    29   12   21 ar   
    30   12   13 ar   
    31   13   14 ar   
    32   13   18 ar   
    33   14   15 ar   
    34   14   46 1    
    35   15   16 1    
    36   16   17 1    
    37   17   47 1    
    38   17   48 1    
    39   17   49 1    
    40   18   19 ar   
    41   18   22 1    
    42   19   20 ar   
    43   20   21 ar   
    44   20   50 1    
    45   22   23 1    
    46   22   51 1    
    47   23   28 ar   
    48   23   24 ar   
    49   24   25 ar   
    50   24   52 1    
    51   25   26 ar   
    52   25   53 1    
    53   26   27 ar   
    54   26   30 1    
    55   27   28 ar   
    56   27   54 1    
    57   28   29 1    
@<TRIPOS>SUBSTRUCTURE
     1 VAN         1 GROUP             0       ****    0 ROOT    
@<TRIPOS>MOLECULE
~{N}-(4-bromo-2-fluoro-phenyl)-6-methoxy-7-[(1-methyl-4-piperidyl)methoxy]quinazolin-4-amine
56   59    1
SMALL
USER_CHARGES


@<TRIPOS>ATOM
      1 C1         -4.2580    2.1727    4.1722 C.3       1 VAN         0.1544 
      2 N1         -3.2639    1.7688    3.1780 N.4       1 VAN        -0.7257 
      3 C2         -3.7533    2.0438    1.8205 C.3       1 VAN         0.1667 
      4 C3         -2.7473    1.5773    0.7662 C.3       1 VAN        -0.0739 
      5 C4         -1.3739    2.2214    0.9831 C.3       1 VAN        -0.0736 
      6 C5         -0.9170    1.9924    2.4278 C.3       1 VAN        -0.0739 
      7 C6         -1.9837    2.4447    3.4272 C.3       1 VAN         0.1667 
      8 C7         -0.3498    1.6772   -0.0090 C.3       1 VAN         0.1344 
      9 O1         -0.7964    1.9662   -1.3209 O.3       1 VAN        -0.3442 
     10 C8         -0.4301    1.0891   -2.3119 C.ar      1 VAN         0.1176 
     11 C9          0.9270    0.8759   -2.5709 C.ar      1 VAN        -0.1927 
     12 C10         1.3500   -0.0031   -3.5650 C.ar      1 VAN         0.4165 
     13 C11         0.3657   -0.6759   -4.3072 C.ar      1 VAN        -0.2478 
     14 C12        -1.0010   -0.4670   -4.0528 C.ar      1 VAN        -0.0931 
     15 C13        -1.3954    0.4170   -3.0533 C.ar      1 VAN         0.0719 
     16 O2         -2.7205    0.6146   -2.8122 O.3       1 VAN        -0.3354 
     17 C14        -3.3645    1.6578   -3.5418 C.3       1 VAN         0.1166 
     18 C15         0.8268   -1.5457   -5.2913 C.ar      1 VAN         0.6450 
     19 N2          2.1298   -1.7617   -5.5527 N.ar      1 VAN        -0.7206 
     20 C16         2.9785   -1.0642   -4.7807 C.ar      1 VAN         0.6464 
     21 N3          2.6598   -0.1955   -3.7997 N.pl3     1 VAN        -0.6772 
     22 N4         -0.1081   -2.2602   -6.0811 N.pl3     1 VAN        -0.7083 
     23 C17        -0.0537   -3.5136   -6.7111 C.ar      1 VAN         0.0987 
     24 C18         0.7242   -4.5337   -6.1632 C.ar      1 VAN        -0.1088 
     25 C19         0.7799   -5.7800   -6.7871 C.ar      1 VAN        -0.1018 
     26 C20         0.0578   -6.0063   -7.9589 C.ar      1 VAN        -0.0203 
     27 C21        -0.7200   -4.9862   -8.5068 C.ar      1 VAN        -0.1205 
     28 C22        -0.7757   -3.7398   -7.8829 C.ar      1 VAN         0.0878 
     29 F1         -1.5263   -2.7665   -8.4181 F         1 VAN        -0.1382 
     30 Br1         0.1333   -7.6948   -8.8043 Br        1 VAN        -0.0739 
     31 H1         -5.2087    1.6576    3.9703 H         1 VAN         0.0315 
     32 H2         -4.4113    3.2605    4.1164 H         1 VAN         0.0315 
     33 H3         -3.9015    1.9037    5.1774 H         1 VAN         0.0315 
     34 H4         -4.7033    1.5134    1.6588 H         1 VAN         0.0311 
     35 H5         -3.9123    3.1256    1.7002 H         1 VAN         0.0311 
     36 H6         -2.6344    0.4847    0.8252 H         1 VAN         0.0515 
     37 H7         -3.1097    1.8549   -0.2346 H         1 VAN         0.0515 
     38 H8         -1.4560    3.3035    0.8032 H         1 VAN         0.0637 
     39 H9         -0.7220    0.9213    2.5853 H         1 VAN         0.0515 
     40 H10         0.0036    2.5642    2.6162 H         1 VAN         0.0515 
     41 H11        -2.1181    3.5321    3.3296 H         1 VAN         0.0311 
     42 H12        -1.6358    2.2080    4.4436 H         1 VAN         0.0311 
     43 H13         0.6242    2.1562    0.1697 H         1 VAN         0.0497 
     44 H14        -0.2532    0.5895    0.1232 H         1 VAN         0.0497 
     45 H15         1.6683    1.4114   -1.9797 H         1 VAN         0.1693 
     46 H16        -1.7694   -0.9838   -4.6228 H         1 VAN         0.1684 
     47 H17        -4.4245    1.7075   -3.2521 H         1 VAN         0.0443 
     48 H18        -3.2883    1.4524   -4.6198 H         1 VAN         0.0443 
     49 H19        -2.8773    2.6178   -3.3161 H         1 VAN         0.0443 
     50 H20         4.0353   -1.2147   -4.9648 H         1 VAN         0.0601 
     51 H21        -1.0954   -1.8242   -6.2937 H         1 VAN         0.4163 
     52 H22         1.2909   -4.3682   -5.2505 H         1 VAN         0.1537 
     53 H23         1.3907   -6.5642   -6.3473 H         1 VAN         0.1541 
     54 H24        -1.2887   -5.1457   -9.4192 H         1 VAN         0.1646 
     55 H55        -3.1012    0.6847    3.2693 H         1 VAN         0.0000 
     56 H56         3.4104    0.3442   -3.2036 H         1 VAN         0.0000 
@<TRIPOS>BOND
     1    1    2 1    
     2    1   31 1    
     3    1   32 1    
     4    1   33 1    
     5    2    7 1    
     6    2    3 1    
     7    2   55 1    
     8    3    4 1    
     9    3   34 1    
    10    3   35 1    
    11    4    5 1    
    12    4   36 1    
    13    4   37 1    
    14    5    6 1    
    15    5    8 1    
    16    5   38 1    
    17    6    7 1    
    18    6   39 1    
    19    6   40 1    
    20    7   41 1    
    21    7   42 1    
    22    8    9 1    
    23    8   43 1    
    24    8   44 1    
    25    9   10 1    
    26   10   15 ar   
    27   10   11 ar   
    28   11   12 ar   
    29   11   45 1    
    30   12   21 ar   
    31   12   13 ar   
    32   13   14 ar   
    33   13   18 ar   
    34   14   15 ar   
    35   14   46 1    
    36   15   16 1    
    37   16   17 1    
    38   17   47 1    
    39   17   48 1    
    40   17   49 1    
    41   18   19 ar   
    42   18   22 1    
    43   19   20 ar   
    44   20   21 ar   
    45   20   50 1    
    46   21   56 1    
    47   22   23 1    
    48   22   51 1    
    49   23   28 ar   
    50   23   24 ar   
    51   24   25 ar   
    52   24   52 1    
    53   25   26 ar   
    54   25   53 1    
    55   26   27 ar   
    56   26   30 1    
    57   27   28 ar   
    58   27   54 1    
    59   28   29 1    
@<TRIPOS>SUBSTRUCTURE
     1 VAN         1 GROUP             0       ****    0 ROOT    
