@<TRIPOS>MOLECULE
~{N}-(4-bromo-2-fluoro-phenyl)-6-methoxy-7-[(1-methylpiperidin-1-ium-4-yl)methoxy]quinazolin-4-amine
   55    58     0     0     0
SMALL
USER_CHARGES

@<TRIPOS>ATOM
      1 C1         -4.2580    2.1727    4.1722 C.3       1 <0>         0.0863
      2 N1         -3.2639    1.7688    3.1780 N.4       1 <0>        -0.6862
      3 C2         -3.7533    2.0438    1.8205 C.3       1 <0>         0.1132
      4 C3         -2.7473    1.5773    0.7662 C.3       1 <0>        -0.1071
      5 C4         -1.3739    2.2214    0.9831 C.3       1 <0>        -0.0906
      6 C5         -0.9170    1.9924    2.4278 C.3       1 <0>        -0.1071
      7 C6         -1.9837    2.4447    3.4272 C.3       1 <0>         0.1132
      8 C7         -0.3498    1.6772   -0.0090 C.3       1 <0>         0.1354
      9 O1         -0.7964    1.9662   -1.3209 O.3       1 <0>        -0.3452
     10 C8         -0.4301    1.0891   -2.3119 C.ar      1 <0>         0.0900
     11 C9          0.9270    0.8759   -2.5709 C.ar      1 <0>        -0.1834
     12 C10         1.3500   -0.0031   -3.5650 C.ar      1 <0>         0.4441
     13 C11         0.3657   -0.6759   -4.3072 C.ar      1 <0>        -0.2884
     14 C12        -1.0010   -0.4670   -4.0528 C.ar      1 <0>        -0.0967
     15 C13        -1.3954    0.4170   -3.0533 C.ar      1 <0>         0.0646
     16 O2         -2.7205    0.6146   -2.8122 O.3       1 <0>        -0.3452
     17 C14        -3.3645    1.6578   -3.5418 C.3       1 <0>         0.1155
     18 C15         0.8268   -1.5457   -5.2913 C.ar      1 <0>         0.7039
     19 N2          2.1298   -1.7617   -5.5527 N.ar      1 <0>        -0.7356
     20 C16         2.9785   -1.0642   -4.7807 C.ar      1 <0>         0.6875
     21 N3          2.6598   -0.1955   -3.7997 N.ar      1 <0>        -0.7205
     22 N4         -0.1081   -2.2602   -6.0811 N.pl3     1 <0>        -0.7119
     23 C17        -0.0537   -3.5136   -6.7111 C.ar      1 <0>         0.0849
     24 C18         0.7242   -4.5337   -6.1632 C.ar      1 <0>        -0.1395
     25 C19         0.7799   -5.7800   -6.7871 C.ar      1 <0>        -0.1069
     26 C20         0.0578   -6.0063   -7.9589 C.ar      1 <0>        -0.0037
     27 C21        -0.7200   -4.9862   -8.5068 C.ar      1 <0>        -0.1355
     28 C22        -0.7757   -3.7398   -7.8829 C.ar      1 <0>         0.1642
     29 F1         -1.5263   -2.7665   -8.4181 F         1 <0>        -0.1089
     30 Br1         0.1333   -7.6948   -8.8043 Br        1 <0>        -0.0561
     31 H1         -5.2087    1.6576    3.9703 H         1 <0>         0.1049
     32 H2         -4.4113    3.2605    4.1164 H         1 <0>         0.1049
     33 H3         -3.9015    1.9037    5.1774 H         1 <0>         0.1049
     34 H4         -4.7033    1.5134    1.6588 H         1 <0>         0.1038
     35 H5         -3.9123    3.1256    1.7002 H         1 <0>         0.1038
     36 H6         -2.6344    0.4847    0.8252 H         1 <0>         0.0918
     37 H7         -3.1097    1.8549   -0.2346 H         1 <0>         0.0918
     38 H8         -1.4560    3.3035    0.8032 H         1 <0>         0.0868
     39 H9         -0.7220    0.9213    2.5853 H         1 <0>         0.0918
     40 H10         0.0036    2.5642    2.6162 H         1 <0>         0.0918
     41 H11        -2.1181    3.5321    3.3296 H         1 <0>         0.1038
     42 H12        -1.6358    2.2080    4.4436 H         1 <0>         0.1038
     43 H13         0.6242    2.1562    0.1697 H         1 <0>         0.0620
     44 H14        -0.2532    0.5895    0.1232 H         1 <0>         0.0620
     45 H15         1.6683    1.4114   -1.9797 H         1 <0>         0.1631
     46 H16        -1.7694   -0.9838   -4.6228 H         1 <0>         0.1475
     47 H17        -4.4245    1.7075   -3.2521 H         1 <0>         0.0470
     48 H18        -3.2883    1.4524   -4.6198 H         1 <0>         0.0470
     49 H19        -2.8773    2.6178   -3.3161 H         1 <0>         0.0470
     50 H20         4.0353   -1.2147   -4.9648 H         1 <0>         0.0660
     51 H21        -1.0954   -1.8242   -6.2937 H         1 <0>         0.4279
     52 H22         1.2909   -4.3682   -5.2505 H         1 <0>         0.1391
     53 H23         1.3907   -6.5642   -6.3473 H         1 <0>         0.1572
     54 H24        -1.2887   -5.1457   -9.4192 H         1 <0>         0.1719
     55 H25        -3.1012    0.6847    3.2693 H         1 <0>         0.4435
@<TRIPOS>BOND
     1    1    2 1
     2    1   31 1
     3    1   32 1
     4    1   33 1
     5    2    7 1
     6    2    3 1
     7    2   55 1
     8    3    4 1
     9    3   34 1
    10    3   35 1
    11    4    5 1
    12    4   36 1
    13    4   37 1
    14    5    6 1
    15    5    8 1
    16    5   38 1
    17    6    7 1
    18    6   39 1
    19    6   40 1
    20    7   41 1
    21    7   42 1
    22    8    9 1
    23    8   43 1
    24    8   44 1
    25    9   10 1
    26   10   15 ar
    27   10   11 ar
    28   11   12 ar
    29   11   45 1
    30   12   21 ar
    31   12   13 ar
    32   13   14 ar
    33   13   18 ar
    34   14   15 ar
    35   14   46 1
    36   15   16 1
    37   16   17 1
    38   17   47 1
    39   17   48 1
    40   17   49 1
    41   18   19 ar
    42   18   22 1
    43   19   20 ar
    44   20   21 ar
    45   20   50 1
    46   22   23 1
    47   22   51 1
    48   23   28 ar
    49   23   24 ar
    50   24   25 ar
    51   24   52 1
    52   25   26 ar
    53   25   53 1
    54   26   27 ar
    55   26   30 1
    56   27   28 ar
    57   27   54 1
    58   28   29 1
@<TRIPOS>MOLECULE
~{N}-(4-bromo-2-fluoro-phenyl)-6-methoxy-7-[(1-methyl-4-piperidyl)methoxy]quinazolin-4-amine
   54    57     0     0     0
SMALL
USER_CHARGES

@<TRIPOS>ATOM
      1 C1         -4.2580    2.1727    4.1722 C.3       1 <0>         0.1501
      2 N1         -3.2639    1.7688    3.1780 N.3       1 <0>        -0.7165
      3 C2         -3.7533    2.0438    1.8205 C.3       1 <0>         0.1608
      4 C3         -2.7473    1.5773    0.7662 C.3       1 <0>        -0.0734
      5 C4         -1.3739    2.2214    0.9831 C.3       1 <0>        -0.0750
      6 C5         -0.9170    1.9924    2.4278 C.3       1 <0>        -0.0734
      7 C6         -1.9837    2.4447    3.4272 C.3       1 <0>         0.1608
      8 C7         -0.3498    1.6772   -0.0090 C.3       1 <0>         0.1347
      9 O1         -0.7964    1.9662   -1.3209 O.3       1 <0>        -0.3450
     10 C8         -0.4301    1.0891   -2.3119 C.ar      1 <0>         0.1159
     11 C9          0.9270    0.8759   -2.5709 C.ar      1 <0>        -0.1904
     12 C10         1.3500   -0.0031   -3.5650 C.ar      1 <0>         0.4411
     13 C11         0.3657   -0.6759   -4.3072 C.ar      1 <0>        -0.2898
     14 C12        -1.0010   -0.4670   -4.0528 C.ar      1 <0>        -0.1138
     15 C13        -1.3954    0.4170   -3.0533 C.ar      1 <0>         0.0734
     16 O2         -2.7205    0.6146   -2.8122 O.3       1 <0>        -0.3398
     17 C14        -3.3645    1.6578   -3.5418 C.3       1 <0>         0.1167
     18 C15         0.8268   -1.5457   -5.2913 C.ar      1 <0>         0.6934
     19 N2          2.1298   -1.7617   -5.5527 N.ar      1 <0>        -0.7424
     20 C16         2.9785   -1.0642   -4.7807 C.ar      1 <0>         0.6720
     21 N3          2.6598   -0.1955   -3.7997 N.ar      1 <0>        -0.7081
     22 N4         -0.1081   -2.2602   -6.0811 N.pl3     1 <0>        -0.7139
     23 C17        -0.0537   -3.5136   -6.7111 C.ar      1 <0>         0.0964
     24 C18         0.7242   -4.5337   -6.1632 C.ar      1 <0>        -0.1425
     25 C19         0.7799   -5.7800   -6.7871 C.ar      1 <0>        -0.1073
     26 C20         0.0578   -6.0063   -7.9589 C.ar      1 <0>        -0.0086
     27 C21        -0.7200   -4.9862   -8.5068 C.ar      1 <0>        -0.1389
     28 C22        -0.7757   -3.7398   -7.8829 C.ar      1 <0>         0.1602
     29 F1         -1.5263   -2.7665   -8.4181 F         1 <0>        -0.1094
     30 Br1         0.1333   -7.6948   -8.8043 Br        1 <0>        -0.0715
     31 H1         -5.2087    1.6576    3.9703 H         1 <0>         0.0323
     32 H2         -4.4113    3.2605    4.1164 H         1 <0>         0.0323
     33 H3         -3.9015    1.9037    5.1774 H         1 <0>         0.0323
     34 H4         -4.7033    1.5134    1.6588 H         1 <0>         0.0319
     35 H5         -3.9123    3.1256    1.7002 H         1 <0>         0.0319
     36 H6         -2.6344    0.4847    0.8252 H         1 <0>         0.0516
     37 H7         -3.1097    1.8549   -0.2346 H         1 <0>         0.0516
     38 H8         -1.4560    3.3035    0.8032 H         1 <0>         0.0635
     39 H9         -0.7220    0.9213    2.5853 H         1 <0>         0.0516
     40 H10         0.0036    2.5642    2.6162 H         1 <0>         0.0516
     41 H11        -2.1181    3.5321    3.3296 H         1 <0>         0.0319
     42 H12        -1.6358    2.2080    4.4436 H         1 <0>         0.0319
     43 H13         0.6242    2.1562    0.1697 H         1 <0>         0.0496
     44 H14        -0.2532    0.5895    0.1232 H         1 <0>         0.0496
     45 H15         1.6683    1.4114   -1.9797 H         1 <0>         0.1699
     46 H16        -1.7694   -0.9838   -4.6228 H         1 <0>         0.1397
     47 H17        -4.4245    1.7075   -3.2521 H         1 <0>         0.0451
     48 H18        -3.2883    1.4524   -4.6198 H         1 <0>         0.0451
     49 H19        -2.8773    2.6178   -3.3161 H         1 <0>         0.0451
     50 H20         4.0353   -1.2147   -4.9648 H         1 <0>         0.0579
     51 H21        -1.0954   -1.8242   -6.2937 H         1 <0>         0.4257
     52 H22         1.2909   -4.3682   -5.2505 H         1 <0>         0.1412
     53 H23         1.3907   -6.5642   -6.3473 H         1 <0>         0.1538
     54 H24        -1.2887   -5.1457   -9.4192 H         1 <0>         0.1667
@<TRIPOS>BOND
     1    1    2 1
     2    1   31 1
     3    1   32 1
     4    1   33 1
     5    2    7 1
     6    2    3 1
     7    3    4 1
     8    3   34 1
     9    3   35 1
    10    4    5 1
    11    4   36 1
    12    4   37 1
    13    5    6 1
    14    5    8 1
    15    5   38 1
    16    6    7 1
    17    6   39 1
    18    6   40 1
    19    7   41 1
    20    7   42 1
    21    8    9 1
    22    8   43 1
    23    8   44 1
    24    9   10 1
    25   10   15 ar
    26   10   11 ar
    27   11   12 ar
    28   11   45 1
    29   12   21 ar
    30   12   13 ar
    31   13   14 ar
    32   13   18 ar
    33   14   15 ar
    34   14   46 1
    35   15   16 1
    36   16   17 1
    37   17   47 1
    38   17   48 1
    39   17   49 1
    40   18   19 ar
    41   18   22 1
    42   19   20 ar
    43   20   21 ar
    44   20   50 1
    45   22   23 1
    46   22   51 1
    47   23   28 ar
    48   23   24 ar
    49   24   25 ar
    50   24   52 1
    51   25   26 ar
    52   25   53 1
    53   26   27 ar
    54   26   30 1
    55   27   28 ar
    56   27   54 1
    57   28   29 1
@<TRIPOS>MOLECULE
~{N}-(4-bromo-2-fluoro-phenyl)-6-methoxy-7-[(1-methylpiperidin-1-ium-4-yl)methoxy]quinazolin-1-ium-4-amine
   56    59     0     0     0
SMALL
USER_CHARGES

@<TRIPOS>ATOM
      1 C1         -4.2580    2.1727    4.1722 C.3       1 <0>         0.0791
      2 N1         -3.2639    1.7688    3.1780 N.4       1 <0>        -0.6821
      3 C2         -3.7533    2.0438    1.8205 C.3       1 <0>         0.1130
      4 C3         -2.7473    1.5773    0.7662 C.3       1 <0>        -0.1100
      5 C4         -1.3739    2.2214    0.9831 C.3       1 <0>        -0.0857
      6 C5         -0.9170    1.9924    2.4278 C.3       1 <0>        -0.1100
      7 C6         -1.9837    2.4447    3.4272 C.3       1 <0>         0.1130
      8 C7         -0.3498    1.6772   -0.0090 C.3       1 <0>         0.1297
      9 O1         -0.7964    1.9662   -1.3209 O.3       1 <0>        -0.3208
     10 C8         -0.4301    1.0891   -2.3119 C.ar      1 <0>         0.1744
     11 C9          0.9270    0.8759   -2.5709 C.ar      1 <0>        -0.2024
     12 C10         1.3500   -0.0031   -3.5650 C.ar      1 <0>         0.0848
     13 C11         0.3657   -0.6759   -4.3072 C.ar      1 <0>        -0.2298
     14 C12        -1.0010   -0.4670   -4.0528 C.ar      1 <0>        -0.0708
     15 C13        -1.3954    0.4170   -3.0533 C.ar      1 <0>         0.0900
     16 O2         -2.7205    0.6146   -2.8122 O.3       1 <0>        -0.3155
     17 C14        -3.3645    1.6578   -3.5418 C.3       1 <0>         0.1141
     18 C15         0.8268   -1.5457   -5.2913 C.ar      1 <0>         0.7771
     19 N2          2.1298   -1.7617   -5.5527 N.ar      1 <0>        -0.7324
     20 C16         2.9785   -1.0642   -4.7807 C.ar      1 <0>         0.6387
     21 N3          2.6598   -0.1955   -3.7997 N.ar      1 <0>        -0.3426
     22 N4         -0.1081   -2.2602   -6.0811 N.pl3     1 <0>        -0.6235
     23 C17        -0.0537   -3.5136   -6.7111 C.ar      1 <0>         0.0300
     24 C18         0.7242   -4.5337   -6.1632 C.ar      1 <0>        -0.0793
     25 C19         0.7799   -5.7800   -6.7871 C.ar      1 <0>        -0.1025
     26 C20         0.0578   -6.0063   -7.9589 C.ar      1 <0>         0.0214
     27 C21        -0.7200   -4.9862   -8.5068 C.ar      1 <0>        -0.1197
     28 C22        -0.7757   -3.7398   -7.8829 C.ar      1 <0>         0.1402
     29 F1         -1.5263   -2.7665   -8.4181 F         1 <0>        -0.1235
     30 Br1         0.1333   -7.6948   -8.8043 Br        1 <0>        -0.0007
     31 H1         -5.2087    1.6576    3.9703 H         1 <0>         0.1105
     32 H2         -4.4113    3.2605    4.1164 H         1 <0>         0.1105
     33 H3         -3.9015    1.9037    5.1774 H         1 <0>         0.1105
     34 H4         -4.7033    1.5134    1.6588 H         1 <0>         0.1110
     35 H5         -3.9123    3.1256    1.7002 H         1 <0>         0.1110
     36 H6         -2.6344    0.4847    0.8252 H         1 <0>         0.0927
     37 H7         -3.1097    1.8549   -0.2346 H         1 <0>         0.0927
     38 H8         -1.4560    3.3035    0.8032 H         1 <0>         0.0865
     39 H9         -0.7220    0.9213    2.5853 H         1 <0>         0.0927
     40 H10         0.0036    2.5642    2.6162 H         1 <0>         0.0927
     41 H11        -2.1181    3.5321    3.3296 H         1 <0>         0.1110
     42 H12        -1.6358    2.2080    4.4436 H         1 <0>         0.1110
     43 H13         0.6242    2.1562    0.1697 H         1 <0>         0.0618
     44 H14        -0.2532    0.5895    0.1232 H         1 <0>         0.0618
     45 H15         1.6683    1.4114   -1.9797 H         1 <0>         0.1699
     46 H16        -1.7694   -0.9838   -4.6228 H         1 <0>         0.1718
     47 H17        -4.4245    1.7075   -3.2521 H         1 <0>         0.0524
     48 H18        -3.2883    1.4524   -4.6198 H         1 <0>         0.0524
     49 H19        -2.8773    2.6178   -3.3161 H         1 <0>         0.0524
     50 H20         4.0353   -1.2147   -4.9648 H         1 <0>         0.1033
     51 H21        -1.0954   -1.8242   -6.2937 H         1 <0>         0.4786
     52 H22         1.2909   -4.3682   -5.2505 H         1 <0>         0.1559
     53 H23         1.3907   -6.5642   -6.3473 H         1 <0>         0.1778
     54 H24        -1.2887   -5.1457   -9.4192 H         1 <0>         0.1908
     55 H25        -3.1012    0.6847    3.2693 H         1 <0>         0.4474
     56 H26         3.4104    0.3442   -3.2036 H         1 <0>         0.3365
@<TRIPOS>BOND
     1    1    2 1
     2    1   31 1
     3    1   32 1
     4    1   33 1
     5    2    7 1
     6    2    3 1
     7    2   55 1
     8    3    4 1
     9    3   34 1
    10    3   35 1
    11    4    5 1
    12    4   36 1
    13    4   37 1
    14    5    6 1
    15    5    8 1
    16    5   38 1
    17    6    7 1
    18    6   39 1
    19    6   40 1
    20    7   41 1
    21    7   42 1
    22    8    9 1
    23    8   43 1
    24    8   44 1
    25    9   10 1
    26   10   15 ar
    27   10   11 ar
    28   11   12 ar
    29   11   45 1
    30   12   21 ar
    31   12   13 ar
    32   13   14 ar
    33   13   18 ar
    34   14   15 ar
    35   14   46 1
    36   15   16 1
    37   16   17 1
    38   17   47 1
    39   17   48 1
    40   17   49 1
    41   18   19 ar
    42   18   22 1
    43   19   20 ar
    44   20   21 ar
    45   20   50 1
    46   21   56 1
    47   22   23 1
    48   22   51 1
    49   23   28 ar
    50   23   24 ar
    51   24   25 ar
    52   24   52 1
    53   25   26 ar
    54   25   53 1
    55   26   27 ar
    56   26   30 1
    57   27   28 ar
    58   27   54 1
    59   28   29 1
