@<TRIPOS>MOLECULE
~{N}-(4-bromo-2-fluoro-phenyl)-6-methoxy-7-[(1-methyl-4-piperidyl)methoxy]quinazolin-4-amine
   54    57     0     0     0
SMALL
USER_CHARGES

@<TRIPOS>ATOM
      1 C1         -4.2580    2.1727    4.1722 C.3       1 VAN         0.1544
      2 N1         -3.2639    1.7688    3.1780 N.3       1 VAN        -0.7257
      3 C2         -3.7533    2.0438    1.8205 C.3       1 VAN         0.1667
      4 C3         -2.7473    1.5773    0.7662 C.3       1 VAN        -0.0739
      5 C4         -1.3739    2.2214    0.9831 C.3       1 VAN        -0.0736
      6 C5         -0.9170    1.9924    2.4278 C.3       1 VAN        -0.0739
      7 C6         -1.9837    2.4447    3.4272 C.3       1 VAN         0.1667
      8 C7         -0.3498    1.6772   -0.0090 C.3       1 VAN         0.1344
      9 O1         -0.7964    1.9662   -1.3209 O.3       1 VAN        -0.3442
     10 C8         -0.4301    1.0891   -2.3119 C.ar      1 VAN         0.1176
     11 C9          0.9270    0.8759   -2.5709 C.ar      1 VAN        -0.1927
     12 C10         1.3500   -0.0031   -3.5650 C.ar      1 VAN         0.4165
     13 C11         0.3657   -0.6759   -4.3072 C.ar      1 VAN        -0.2478
     14 C12        -1.0010   -0.4670   -4.0528 C.ar      1 VAN        -0.0931
     15 C13        -1.3954    0.4170   -3.0533 C.ar      1 VAN         0.0719
     16 O2         -2.7205    0.6146   -2.8122 O.3       1 VAN        -0.3354
     17 C14        -3.3645    1.6578   -3.5418 C.3       1 VAN         0.1166
     18 C15         0.8268   -1.5457   -5.2913 C.ar      1 VAN         0.6450
     19 N2          2.1298   -1.7617   -5.5527 N.ar      1 VAN        -0.7206
     20 C16         2.9785   -1.0642   -4.7807 C.ar      1 VAN         0.6464
     21 N3          2.6598   -0.1955   -3.7997 N.ar      1 VAN        -0.6772
     22 N4         -0.1081   -2.2602   -6.0811 N.pl3     1 VAN        -0.7083
     23 C17        -0.0537   -3.5136   -6.7111 C.ar      1 VAN         0.0987
     24 C18         0.7242   -4.5337   -6.1632 C.ar      1 VAN        -0.1088
     25 C19         0.7799   -5.7800   -6.7871 C.ar      1 VAN        -0.1018
     26 C20         0.0578   -6.0063   -7.9589 C.ar      1 VAN        -0.0203
     27 C21        -0.7200   -4.9862   -8.5068 C.ar      1 VAN        -0.1205
     28 C22        -0.7757   -3.7398   -7.8829 C.ar      1 VAN         0.0878
     29 F1         -1.5263   -2.7665   -8.4181 F         1 VAN        -0.1382
     30 Br1         0.1333   -7.6948   -8.8043 Br        1 VAN        -0.0739
     31 H1         -5.2077    1.6664    3.9811 H         1 VAN         0.0315
     32 H2         -4.4199    3.2531    4.1275 H         1 VAN         0.0315
     33 H3         -3.9156    1.9110    5.1770 H         1 VAN         0.0315
     34 H4         -4.6964    1.5100    1.6509 H         1 VAN         0.0311
     35 H5         -3.9568    3.1146    1.6870 H         1 VAN         0.0311
     36 H6         -2.6597    0.4834    0.8064 H         1 VAN         0.0515
     37 H7         -3.1246    1.8288   -0.2322 H         1 VAN         0.0515
     38 H8         -1.4675    3.3028    0.8159 H         1 VAN         0.0637
     39 H9         -0.6968    0.9287    2.5878 H         1 VAN         0.0515
     40 H10         0.0136    2.5409    2.6168 H         1 VAN         0.0515
     41 H11        -1.6278    2.2049    4.4367 H         1 VAN         0.0311
     42 H12        -2.0997    3.5353    3.3735 H         1 VAN         0.0311
     43 H13        -0.2545    0.5981    0.1101 H         1 VAN         0.0497
     44 H14         0.6167    2.1528    0.1561 H         1 VAN         0.0497
     45 H15         1.6683    1.4114   -1.9797 H         1 VAN         0.1693
     46 H16        -1.7694   -0.9838   -4.6228 H         1 VAN         0.1684
     47 H17        -4.4127    1.7000   -3.2491 H         1 VAN         0.0443
     48 H18        -3.2721    1.4540   -4.6079 H         1 VAN         0.0443
     49 H19        -2.8745    2.6001   -3.3008 H         1 VAN         0.0443
     50 H20         4.0353   -1.2147   -4.9648 H         1 VAN         0.0601
     51 H21        -0.9817   -1.7645   -6.2129 H         1 VAN         0.4163
     52 H22         1.2909   -4.3682   -5.2505 H         1 VAN         0.1537
     53 H23         1.3907   -6.5642   -6.3473 H         1 VAN         0.1541
     54 H24        -1.2887   -5.1457   -9.4192 H         1 VAN         0.1646
@<TRIPOS>BOND
     1    1    2 1
     2    2    7 1
     3    2    3 1
     4    3    4 1
     5    4    5 1
     6    5    6 1
     7    6    7 1
     8    5    8 1
     9    8    9 1
    10    9   10 1
    11   10   15 ar
    12   10   11 ar
    13   11   12 ar
    14   12   21 ar
    15   12   13 ar
    16   13   14 ar
    17   14   15 ar
    18   15   16 1
    19   16   17 1
    20   13   18 ar
    21   18   19 ar
    22   19   20 ar
    23   20   21 ar
    24   18   22 1
    25   22   23 1
    26   23   28 ar
    27   23   24 ar
    28   24   25 ar
    29   25   26 ar
    30   26   27 ar
    31   27   28 ar
    32   28   29 1
    33   26   30 1
    34    1   31 1
    35    1   32 1
    36    1   33 1
    37    3   34 1
    38    3   35 1
    39    4   36 1
    40    4   37 1
    41    5   38 1
    42    6   39 1
    43    6   40 1
    44    7   41 1
    45    7   42 1
    46    8   43 1
    47    8   44 1
    48   11   45 1
    49   14   46 1
    50   17   47 1
    51   17   48 1
    52   17   49 1
    53   20   50 1
    54   22   51 1
    55   24   52 1
    56   25   53 1
    57   27   54 1
