@<TRIPOS>MOLECULE
LQQ
   62    66     1     0     0
SMALL
NO_CHARGES

@<TRIPOS>ATOM
      1  O01       32.4090   28.5440   60.1410 O.2       1 LQQ         0.0000
      2  C02       33.0080   27.5190   59.9010 C.2       1 LQQ         0.0000
      3  C01       34.3120   27.5070   59.1620 C.3       1 LQQ         0.0000
      4  C03       32.4150   26.2120   60.3390 C.ar      1 LQQ         0.0000
      5  C04       32.6480   25.6900   61.6150 C.ar      1 LQQ         0.0000
      6  C05       33.4290   26.4260   62.6690 C.3       1 LQQ         0.0000
      7  C06       31.9290   24.4600   62.0050 C.ar      1 LQQ         0.0000
      8  C07       32.1990   23.7830   63.2720 C.ar      1 LQQ         0.0000
      9  N01       31.5880   22.6260   63.5420 N.ar      1 LQQ         0.0000
     10  C08       30.8720   21.9680   62.6070 C.ar      1 LQQ         0.0000
     11  N02       30.7030   22.5010   61.3540 N.ar      1 LQQ         0.0000
     12  C09       31.2660   23.6800   60.9670 C.ar      1 LQQ         0.0000
     13  N03       31.0700   24.2300   59.7410 N.am      1 LQQ         0.0000
     14  C10       30.2950   23.4750   58.7390 C.3       1 LQQ         0.0000
     15  C11       29.2130   24.2680   58.0150 C.3       1 LQQ         0.0000
     16  C12       29.2870   23.8720   56.5360 C.3       1 LQQ         0.0000
     17  C13       30.5060   22.9550   56.3320 C.3       1 LQQ         0.0000
     18  C14       31.2520   22.9450   57.6650 C.3       1 LQQ         0.0000
     19  C15       31.6630   25.4930   59.4060 C.ar      1 LQQ         0.0000
     20  O02       31.5220   26.0010   58.2620 O.2       1 LQQ         0.0000
     21  N04       30.3500   20.7760   63.0170 N.pl3     1 LQQ         0.0000
     22  C16       29.6660   19.8610   62.2880 C.ar      1 LQQ         0.0000
     23  N05       29.5140   18.6170   62.8010 N.ar      1 LQQ         0.0000
     24  C17       28.8440   17.6710   62.1330 C.ar      1 LQQ         0.0000
     25  C18       28.2800   17.9460   60.8870 C.ar      1 LQQ         0.0000
     26  C19       28.4240   19.2200   60.3470 C.ar      1 LQQ         0.0000
     27  C20       29.1170   20.1840   61.0520 C.ar      1 LQQ         0.0000
     28  N06       27.5710   16.9530   60.1740 N.pl3     1 LQQ         0.0000
     29  C21       28.4660   15.8000   59.9060 C.3       1 LQQ         0.0000
     30  C22       27.7120   14.6830   59.1890 C.3       1 LQQ         0.0000
     31  N07       27.0440   15.1960   58.0030 N.3       1 LQQ         0.0000
     32  C23       26.3410   16.4760   58.0250 C.3       1 LQQ         0.0000
     33  C24       26.9860   17.5260   58.9330 C.3       1 LQQ         0.0000
     34 H011       34.8800   26.6060   59.4360 H         1 LQQ         0.0000
     35 H012       34.8930   28.4020   59.4290 H         1 LQQ         0.0000
     36 H013       34.1200   27.5040   58.0790 H         1 LQQ         0.0000
     37 H051       33.4640   25.8220   63.5880 H         1 LQQ         0.0000
     38 H052       32.9410   27.3890   62.8810 H         1 LQQ         0.0000
     39 H053       34.4530   26.6060   62.3090 H         1 LQQ         0.0000
     40  H1        32.8870   24.2150   63.9840 H         1 LQQ         0.0000
     41  H10       29.7880   22.6840   59.3110 H         1 LQQ         0.0000
     42 H111       29.3680   25.3500   58.1400 H         1 LQQ         0.0000
     43 H112       28.2220   24.0270   58.4270 H         1 LQQ         0.0000
     44 H121       29.3870   24.7720   55.9120 H         1 LQQ         0.0000
     45 H122       28.3690   23.3390   56.2480 H         1 LQQ         0.0000
     46 H131       31.1480   23.3160   55.5150 H         1 LQQ         0.0000
     47 H132       30.1860   21.9390   56.0590 H         1 LQQ         0.0000
     48 H141       31.5820   21.9250   57.9130 H         1 LQQ         0.0000
     49 H142       32.1430   23.5870   57.6040 H         1 LQQ         0.0000
     50  H04       30.4900   20.5480   63.9800 H         1 LQQ         0.0000
     51  H17       28.7390   16.6860   62.5620 H         1 LQQ         0.0000
     52  H19       27.9970   19.4530   59.3830 H         1 LQQ         0.0000
     53  H20       29.2310   21.1790   60.6470 H         1 LQQ         0.0000
     54 H211       28.8410   15.4140   60.8650 H         1 LQQ         0.0000
     55 H212       29.3010   16.1340   59.2720 H         1 LQQ         0.0000
     56 H221       26.9550   14.2700   59.8720 H         1 LQQ         0.0000
     57 H222       28.4260   13.9010   58.8900 H         1 LQQ         0.0000
     58  H07       27.7580   15.2900   57.3090 H         1 LQQ         0.0000
     59 H231       25.3340   16.2820   58.4240 H         1 LQQ         0.0000
     60 H232       26.3290   16.8750   57.0000 H         1 LQQ         0.0000
     61 H241       27.8080   17.9880   58.3670 H         1 LQQ         0.0000
     62 H242       26.2120   18.2520   59.2220 H         1 LQQ         0.0000
@<TRIPOS>BOND
     1    1    2 2
     2    2    3 1
     3    2    4 1
     4    3   34 1
     5    3   35 1
     6    3   36 1
     7    4    5 ar
     8    4   19 ar
     9    5    6 1
    10    5    7 ar
    11    6   37 1
    12    6   38 1
    13    6   39 1
    14    7    8 ar
    15    7   12 ar
    16    8    9 ar
    17    8   40 1
    18    9   10 ar
    19   10   11 ar
    20   10   21 1
    21   11   12 ar
    22   12   13 ar
    23   13   14 1
    24   13   19 ar
    25   14   15 1
    26   14   18 1
    27   14   41 1
    28   15   16 1
    29   15   42 1
    30   15   43 1
    31   16   17 1
    32   16   44 1
    33   16   45 1
    34   17   18 1
    35   17   46 1
    36   17   47 1
    37   18   48 1
    38   18   49 1
    39   19   20 2
    40   21   22 1
    41   21   50 1
    42   22   23 ar
    43   22   27 ar
    44   23   24 ar
    45   24   25 ar
    46   24   51 1
    47   25   26 ar
    48   25   28 1
    49   26   27 ar
    50   26   52 1
    51   27   53 1
    52   28   29 1
    53   28   33 1
    54   29   30 1
    55   29   54 1
    56   29   55 1
    57   30   31 1
    58   30   56 1
    59   30   57 1
    60   31   32 1
    61   31   58 1
    62   32   33 1
    63   32   59 1
    64   32   60 1
    65   33   61 1
    66   33   62 1
@<TRIPOS>SUBSTRUCTURE
     1 LQQ         1 GROUP 0 A     ****
