@<TRIPOS>MOLECULE
6-acetyl-8-cyclopentyl-5-methyl-2-[(5-piperazin-4-ium-1-yl-2-pyridyl)amino]pyrido[2,3-d]pyrimidin-7-one
   63    67     0     0     0
SMALL
USER_CHARGES

@<TRIPOS>ATOM
      1 C1          8.4256    2.0145   10.2019 C.3       1 <0>        -0.0837
      2 C2          8.8610    2.6517    8.9024 C.2       1 <0>         0.0773
      3 C3          8.4547    1.9476    7.6649 C.ar      1 <0>        -0.3922
      4 C4          7.7673    0.7358    7.6490 C.ar      1 <0>         0.5113
      5 N1          7.3827    0.0794    6.5338 N.ar      1 <0>        -0.7690
      6 C5          7.7150    0.6834    5.3870 C.ar      1 <0>         0.9187
      7 N2          8.3793    1.8433    5.2587 N.ar      1 <0>        -0.7943
      8 C6          8.7478    2.4652    6.4091 C.ar      1 <0>         0.6297
      9 N3          9.4669    3.6893    6.3241 N.am      1 <0>        -0.4093
     10 C7          9.9005    4.3810    7.4473 C.2       1 <0>         0.7173
     11 O1         10.5374    5.4352    7.3967 O.2       1 <0>        -0.5900
     12 C8          9.5664    3.7969    8.7913 C.2       1 <0>        -0.2617
     13 C9         10.0373    4.5164    9.9933 C.2       1 <0>         0.5960
     14 O2          9.2297    4.9289   10.8193 O.2       1 <0>        -0.4984
     15 C10        11.5182    4.7059   10.1559 C.3       1 <0>        -0.1933
     16 C11         9.7522    4.2011    4.9957 C.3       1 <0>         0.0877
     17 C12        11.2378    4.4522    4.7672 C.3       1 <0>        -0.0921
     18 C13        11.2645    5.3745    3.5512 C.3       1 <0>        -0.0779
     19 C14         9.9162    6.1003    3.5411 C.3       1 <0>        -0.0779
     20 C15         9.1476    5.5786    4.7523 C.3       1 <0>        -0.0921
     21 N4          7.3314    0.0371    4.1922 N.pl3     1 <0>        -0.8222
     22 C16         7.5032    0.3649    2.8341 C.ar      1 <0>         0.6710
     23 C17         6.9859   -0.5170    1.8990 C.ar      1 <0>        -0.2262
     24 C18         7.1462   -0.2065    0.5532 C.ar      1 <0>        -0.0719
     25 C19         7.8095    0.9600    0.1889 C.ar      1 <0>        -0.0750
     26 C20         8.2898    1.7759    1.2005 C.ar      1 <0>         0.4146
     27 N5          8.1532    1.5075    2.5184 N.ar      1 <0>        -0.6955
     28 N6          7.9854    1.2998   -1.1572 N.pl3     1 <0>        -0.6386
     29 C21         6.7864    1.4755   -1.9881 C.3       1 <0>         0.1670
     30 C22         7.1351    1.3280   -3.4687 C.3       1 <0>         0.0985
     31 N7          8.2322    2.2165   -3.8495 N.4       1 <0>        -0.7614
     32 C23         9.4237    1.9112   -3.0594 C.3       1 <0>         0.0985
     33 C24         9.1602    2.0789   -1.5631 C.3       1 <0>         0.1670
     34 H1          7.8673    1.0911    9.9885 H         1 <0>         0.0628
     35 H2          7.7808    2.7133   10.7549 H         1 <0>         0.0628
     36 H3          9.3119    1.7754   10.8080 H         1 <0>         0.0628
     37 H4          7.4875    0.2175    8.5610 H         1 <0>         0.0372
     38 H5         11.7175    5.2535   11.0888 H         1 <0>         0.0706
     39 H6         11.9103    5.2795    9.3031 H         1 <0>         0.0706
     40 H7         12.0115    3.7235   10.1949 H         1 <0>         0.0706
     41 H8          9.3234    3.3973    4.3792 H         1 <0>         0.0897
     42 H9         11.6711    4.9263    5.6602 H         1 <0>         0.0608
     43 H10        11.7463    3.4956    4.5767 H         1 <0>         0.0608
     44 H11        12.0977    6.0860    3.6489 H         1 <0>         0.0473
     45 H12        11.3995    4.7748    2.6390 H         1 <0>         0.0473
     46 H13        10.0832    7.1851    3.6138 H         1 <0>         0.0473
     47 H14         9.3845    5.8731    2.6053 H         1 <0>         0.0473
     48 H15         8.0710    5.4761    4.5510 H         1 <0>         0.0608
     49 H16         9.2959    6.2068    5.6430 H         1 <0>         0.0608
     50 H17         6.7859   -0.9172    4.2338 H         1 <0>         0.4753
     51 H18         6.4691   -1.4249    2.1922 H         1 <0>         0.1846
     52 H19         6.7514   -0.8795   -0.2031 H         1 <0>         0.1444
     53 H20         8.8157    2.6997    0.9786 H         1 <0>         0.0210
     54 H21         6.0393    0.7142   -1.7194 H         1 <0>         0.0812
     55 H22         6.3661    2.4777   -1.8181 H         1 <0>         0.0812
     56 H23         7.4394    0.2907   -3.6721 H         1 <0>         0.1135
     57 H24         6.2551    1.5784   -4.0794 H         1 <0>         0.1135
     58 H25         8.4618    2.0791   -4.9165 H         1 <0>         0.4526
     59 H26         9.7301    0.8712   -3.2450 H         1 <0>         0.1135
     60 H27        10.2391    2.5907   -3.3481 H         1 <0>         0.1135
     61 H28         8.9861    3.1436   -1.3483 H         1 <0>         0.0812
     62 H29        10.0416    1.7314   -1.0042 H         1 <0>         0.0812
     63 H30         7.9376    3.2609   -3.6694 H         1 <0>         0.4526
@<TRIPOS>BOND
     1    1    2 1
     2    1   34 1
     3    1   35 1
     4    1   36 1
     5    2   12 2
     6    2    3 1
     7    3    8 ar
     8    3    4 ar
     9    4    5 ar
    10    4   37 1
    11    5    6 ar
    12    6    7 ar
    13    6   21 1
    14    7    8 ar
    15    8    9 1
    16    9   10 am
    17    9   16 1
    18   10   11 2
    19   10   12 1
    20   12   13 1
    21   13   14 2
    22   13   15 1
    23   15   38 1
    24   15   39 1
    25   15   40 1
    26   16   20 1
    27   16   17 1
    28   16   41 1
    29   17   18 1
    30   17   42 1
    31   17   43 1
    32   18   19 1
    33   18   44 1
    34   18   45 1
    35   19   20 1
    36   19   46 1
    37   19   47 1
    38   20   48 1
    39   20   49 1
    40   21   22 1
    41   21   50 1
    42   22   27 ar
    43   22   23 ar
    44   23   24 ar
    45   23   51 1
    46   24   25 ar
    47   24   52 1
    48   25   26 ar
    49   25   28 1
    50   26   27 ar
    51   26   53 1
    52   28   33 1
    53   28   29 1
    54   29   30 1
    55   29   54 1
    56   29   55 1
    57   30   31 1
    58   30   56 1
    59   30   57 1
    60   31   32 1
    61   31   58 1
    62   31   63 1
    63   32   33 1
    64   32   59 1
    65   32   60 1
    66   33   61 1
    67   33   62 1
@<TRIPOS>MOLECULE
6-acetyl-8-cyclopentyl-5-methyl-2-[(5-piperazin-4-ium-1-ylpyridin-1-ium-2-yl)amino]pyrido[2,3-d]pyrimidin-7-one
   64    68     0     0     0
SMALL
USER_CHARGES

@<TRIPOS>ATOM
      1 C1          8.4256    2.0145   10.2019 C.3       1 <0>        -0.0874
      2 C2          8.8610    2.6517    8.9024 C.2       1 <0>         0.0627
      3 C3          8.4547    1.9476    7.6649 C.ar      1 <0>        -0.3366
      4 C4          7.7673    0.7358    7.6490 C.ar      1 <0>         0.5106
      5 N1          7.3827    0.0794    6.5338 N.ar      1 <0>        -0.7733
      6 C5          7.7150    0.6834    5.3870 C.ar      1 <0>         0.8788
      7 N2          8.3793    1.8433    5.2587 N.ar      1 <0>        -0.7701
      8 C6          8.7478    2.4652    6.4091 C.ar      1 <0>         0.6292
      9 N3          9.4669    3.6893    6.3241 N.am      1 <0>        -0.3999
     10 C7          9.9005    4.3810    7.4473 C.2       1 <0>         0.7096
     11 O1         10.5374    5.4352    7.3967 O.2       1 <0>        -0.5539
     12 C8          9.5664    3.7969    8.7913 C.2       1 <0>        -0.2302
     13 C9         10.0373    4.5164    9.9933 C.2       1 <0>         0.5892
     14 O2          9.2297    4.9289   10.8193 O.2       1 <0>        -0.4914
     15 C10        11.5182    4.7059   10.1559 C.3       1 <0>        -0.1967
     16 C11         9.7522    4.2011    4.9957 C.3       1 <0>         0.0843
     17 C12        11.2378    4.4522    4.7672 C.3       1 <0>        -0.0916
     18 C13        11.2645    5.3745    3.5512 C.3       1 <0>        -0.0794
     19 C14         9.9162    6.1003    3.5411 C.3       1 <0>        -0.0794
     20 C15         9.1476    5.5786    4.7523 C.3       1 <0>        -0.0916
     21 N4          7.3314    0.0371    4.1922 N.pl3     1 <0>        -0.6919
     22 C16         7.5032    0.3649    2.8341 C.ar      1 <0>         0.3307
     23 C17         6.9859   -0.5170    1.8990 C.ar      1 <0>        -0.1578
     24 C18         7.1462   -0.2065    0.5532 C.ar      1 <0>        -0.0191
     25 C19         7.8095    0.9600    0.1889 C.ar      1 <0>         0.0784
     26 C20         8.2898    1.7759    1.2005 C.ar      1 <0>        -0.0723
     27 N5          8.1532    1.5075    2.5184 N.ar      1 <0>        -0.1765
     28 N6          7.9854    1.2998   -1.1572 N.pl3     1 <0>        -0.6573
     29 C21         6.7864    1.4755   -1.9881 C.3       1 <0>         0.1665
     30 C22         7.1351    1.3280   -3.4687 C.3       1 <0>         0.0992
     31 N7          8.2322    2.2165   -3.8495 N.4       1 <0>        -0.7626
     32 C23         9.4237    1.9112   -3.0594 C.3       1 <0>         0.0992
     33 C24         9.1602    2.0789   -1.5631 C.3       1 <0>         0.1665
     34 H1          7.8673    1.0911    9.9885 H         1 <0>         0.0730
     35 H2          7.7808    2.7133   10.7549 H         1 <0>         0.0730
     36 H3          9.3119    1.7754   10.8080 H         1 <0>         0.0730
     37 H4          7.4875    0.2175    8.5610 H         1 <0>         0.0599
     38 H5         11.7175    5.2535   11.0888 H         1 <0>         0.0817
     39 H6         11.9103    5.2795    9.3031 H         1 <0>         0.0817
     40 H7         12.0115    3.7235   10.1949 H         1 <0>         0.0817
     41 H8          9.3234    3.3973    4.3792 H         1 <0>         0.0747
     42 H9         11.6711    4.9263    5.6602 H         1 <0>         0.0639
     43 H10        11.7463    3.4956    4.5767 H         1 <0>         0.0639
     44 H11        12.0977    6.0860    3.6489 H         1 <0>         0.0548
     45 H12        11.3995    4.7748    2.6390 H         1 <0>         0.0548
     46 H13        10.0832    7.1851    3.6138 H         1 <0>         0.0548
     47 H14         9.3845    5.8731    2.6053 H         1 <0>         0.0548
     48 H15         8.0710    5.4761    4.5510 H         1 <0>         0.0639
     49 H16         9.2959    6.2068    5.6430 H         1 <0>         0.0639
     50 H17         6.7859   -0.9172    4.2338 H         1 <0>         0.4900
     51 H18         6.4691   -1.4249    2.1922 H         1 <0>         0.2432
     52 H19         6.7514   -0.8795   -0.2031 H         1 <0>         0.1867
     53 H20         8.8157    2.6997    0.9786 H         1 <0>         0.1934
     54 H21         6.0393    0.7142   -1.7194 H         1 <0>         0.0868
     55 H22         6.3661    2.4777   -1.8181 H         1 <0>         0.0868
     56 H23         7.4394    0.2907   -3.6721 H         1 <0>         0.1279
     57 H24         6.2551    1.5784   -4.0794 H         1 <0>         0.1279
     58 H25         8.4618    2.0791   -4.9165 H         1 <0>         0.4658
     59 H26         9.7301    0.8712   -3.2450 H         1 <0>         0.1279
     60 H27        10.2391    2.5907   -3.3481 H         1 <0>         0.1279
     61 H28         8.9861    3.1436   -1.3483 H         1 <0>         0.0868
     62 H29        10.0416    1.7314   -1.0042 H         1 <0>         0.0868
     63 H30         7.9376    3.2609   -3.6694 H         1 <0>         0.4658
     64 H31         8.5372    2.1602    3.3162 H         1 <0>         0.3369
@<TRIPOS>BOND
     1    1    2 1
     2    1   34 1
     3    1   35 1
     4    1   36 1
     5    2   12 2
     6    2    3 1
     7    3    8 ar
     8    3    4 ar
     9    4    5 ar
    10    4   37 1
    11    5    6 ar
    12    6    7 ar
    13    6   21 1
    14    7    8 ar
    15    8    9 1
    16    9   10 am
    17    9   16 1
    18   10   11 2
    19   10   12 1
    20   12   13 1
    21   13   14 2
    22   13   15 1
    23   15   38 1
    24   15   39 1
    25   15   40 1
    26   16   20 1
    27   16   17 1
    28   16   41 1
    29   17   18 1
    30   17   42 1
    31   17   43 1
    32   18   19 1
    33   18   44 1
    34   18   45 1
    35   19   20 1
    36   19   46 1
    37   19   47 1
    38   20   48 1
    39   20   49 1
    40   21   22 1
    41   21   50 1
    42   22   27 ar
    43   22   23 ar
    44   23   24 ar
    45   23   51 1
    46   24   25 ar
    47   24   52 1
    48   25   26 ar
    49   25   28 1
    50   26   27 ar
    51   26   53 1
    52   27   64 1
    53   28   33 1
    54   28   29 1
    55   29   30 1
    56   29   54 1
    57   29   55 1
    58   30   31 1
    59   30   56 1
    60   30   57 1
    61   31   32 1
    62   31   58 1
    63   31   63 1
    64   32   33 1
    65   32   59 1
    66   32   60 1
    67   33   61 1
    68   33   62 1
@<TRIPOS>MOLECULE
6-acetyl-8-cyclopentyl-5-methyl-2-[(5-piperazin-1-ylpyridin-1-ium-2-yl)amino]pyrido[2,3-d]pyrimidin-7-one
   63    67     0     0     0
SMALL
USER_CHARGES

@<TRIPOS>ATOM
      1 C1          8.4256    2.0145   10.2019 C.3       1 <0>        -0.0891
      2 C2          8.8610    2.6517    8.9024 C.2       1 <0>         0.0794
      3 C3          8.4547    1.9476    7.6649 C.ar      1 <0>        -0.3636
      4 C4          7.7673    0.7358    7.6490 C.ar      1 <0>         0.5154
      5 N1          7.3827    0.0794    6.5338 N.ar      1 <0>        -0.7656
      6 C5          7.7150    0.6834    5.3870 C.ar      1 <0>         0.9059
      7 N2          8.3793    1.8433    5.2587 N.ar      1 <0>        -0.7821
      8 C6          8.7478    2.4652    6.4091 C.ar      1 <0>         0.6299
      9 N3          9.4669    3.6893    6.3241 N.am      1 <0>        -0.4052
     10 C7          9.9005    4.3810    7.4473 C.2       1 <0>         0.7159
     11 O1         10.5374    5.4352    7.3967 O.2       1 <0>        -0.5756
     12 C8          9.5664    3.7969    8.7913 C.2       1 <0>        -0.2509
     13 C9         10.0373    4.5164    9.9933 C.2       1 <0>         0.5933
     14 O2          9.2297    4.9289   10.8193 O.2       1 <0>        -0.5043
     15 C10        11.5182    4.7059   10.1559 C.3       1 <0>        -0.1961
     16 C11         9.7522    4.2011    4.9957 C.3       1 <0>         0.0856
     17 C12        11.2378    4.4522    4.7672 C.3       1 <0>        -0.0924
     18 C13        11.2645    5.3745    3.5512 C.3       1 <0>        -0.0786
     19 C14         9.9162    6.1003    3.5411 C.3       1 <0>        -0.0786
     20 C15         9.1476    5.5786    4.7523 C.3       1 <0>        -0.0924
     21 N4          7.3314    0.0371    4.1922 N.pl3     1 <0>        -0.7290
     22 C16         7.5032    0.3649    2.8341 C.ar      1 <0>         0.2877
     23 C17         6.9859   -0.5170    1.8990 C.ar      1 <0>        -0.1564
     24 C18         7.1462   -0.2065    0.5532 C.ar      1 <0>        -0.0343
     25 C19         7.8095    0.9600    0.1889 C.ar      1 <0>         0.1462
     26 C20         8.2898    1.7759    1.2005 C.ar      1 <0>        -0.1336
     27 N5          8.1532    1.5075    2.5184 N.ar      1 <0>        -0.1374
     28 N6          7.9854    1.2998   -1.1572 N.pl3     1 <0>        -0.6414
     29 C21         6.7864    1.4755   -1.9881 C.3       1 <0>         0.1906
     30 C22         7.1351    1.3280   -3.4687 C.3       1 <0>         0.1583
     31 N7          8.2322    2.2165   -3.8495 N.3       1 <0>        -0.8196
     32 C23         9.4237    1.9112   -3.0594 C.3       1 <0>         0.1583
     33 C24         9.1602    2.0789   -1.5631 C.3       1 <0>         0.1906
     34 H1          7.8673    1.0911    9.9885 H         1 <0>         0.0712
     35 H2          7.7808    2.7133   10.7549 H         1 <0>         0.0712
     36 H3          9.3119    1.7754   10.8080 H         1 <0>         0.0712
     37 H4          7.4875    0.2175    8.5610 H         1 <0>         0.0543
     38 H5         11.7175    5.2535   11.0888 H         1 <0>         0.0782
     39 H6         11.9103    5.2795    9.3031 H         1 <0>         0.0782
     40 H7         12.0115    3.7235   10.1949 H         1 <0>         0.0782
     41 H8          9.3234    3.3973    4.3792 H         1 <0>         0.0801
     42 H9         11.6711    4.9263    5.6602 H         1 <0>         0.0625
     43 H10        11.7463    3.4956    4.5767 H         1 <0>         0.0625
     44 H11        12.0977    6.0860    3.6489 H         1 <0>         0.0512
     45 H12        11.3995    4.7748    2.6390 H         1 <0>         0.0512
     46 H13        10.0832    7.1851    3.6138 H         1 <0>         0.0512
     47 H14         9.3845    5.8731    2.6053 H         1 <0>         0.0512
     48 H15         8.0710    5.4761    4.5510 H         1 <0>         0.0625
     49 H16         9.2959    6.2068    5.6430 H         1 <0>         0.0625
     50 H17         6.7859   -0.9172    4.2338 H         1 <0>         0.4785
     51 H18         6.4691   -1.4249    2.1922 H         1 <0>         0.2245
     52 H19         6.7514   -0.8795   -0.2031 H         1 <0>         0.1873
     53 H20         8.8157    2.6997    0.9786 H         1 <0>         0.1993
     54 H21         6.0393    0.7142   -1.7194 H         1 <0>         0.0534
     55 H22         6.3661    2.4777   -1.8181 H         1 <0>         0.0534
     56 H23         7.4394    0.2907   -3.6721 H         1 <0>         0.0536
     57 H24         6.2551    1.5784   -4.0794 H         1 <0>         0.0536
     58 H25         8.4618    2.0791   -4.9165 H         1 <0>         0.3887
     59 H26         9.7301    0.8712   -3.2450 H         1 <0>         0.0536
     60 H27        10.2391    2.5907   -3.3481 H         1 <0>         0.0536
     61 H28         8.9861    3.1436   -1.3483 H         1 <0>         0.0534
     62 H29        10.0416    1.7314   -1.0042 H         1 <0>         0.0534
     63 H30         8.5372    2.1602    3.3162 H         1 <0>         0.3254
@<TRIPOS>BOND
     1    1    2 1
     2    1   34 1
     3    1   35 1
     4    1   36 1
     5    2   12 2
     6    2    3 1
     7    3    8 ar
     8    3    4 ar
     9    4    5 ar
    10    4   37 1
    11    5    6 ar
    12    6    7 ar
    13    6   21 1
    14    7    8 ar
    15    8    9 1
    16    9   10 am
    17    9   16 1
    18   10   11 2
    19   10   12 1
    20   12   13 1
    21   13   14 2
    22   13   15 1
    23   15   38 1
    24   15   39 1
    25   15   40 1
    26   16   20 1
    27   16   17 1
    28   16   41 1
    29   17   18 1
    30   17   42 1
    31   17   43 1
    32   18   19 1
    33   18   44 1
    34   18   45 1
    35   19   20 1
    36   19   46 1
    37   19   47 1
    38   20   48 1
    39   20   49 1
    40   21   22 1
    41   21   50 1
    42   22   27 ar
    43   22   23 ar
    44   23   24 ar
    45   23   51 1
    46   24   25 ar
    47   24   52 1
    48   25   26 ar
    49   25   28 1
    50   26   27 ar
    51   26   53 1
    52   27   63 1
    53   28   33 1
    54   28   29 1
    55   29   30 1
    56   29   54 1
    57   29   55 1
    58   30   31 1
    59   30   56 1
    60   30   57 1
    61   31   32 1
    62   31   58 1
    63   32   33 1
    64   32   59 1
    65   32   60 1
    66   33   61 1
    67   33   62 1
@<TRIPOS>MOLECULE
6-acetyl-8-cyclopentyl-5-methyl-2-[(5-piperazin-1-yl-2-pyridyl)amino]pyrido[2,3-d]pyrimidin-7-one
   62    66     0     0     0
SMALL
USER_CHARGES

@<TRIPOS>ATOM
      1 C1          8.4256    2.0145   10.2019 C.3       1 <0>        -0.0810
      2 C2          8.8610    2.6517    8.9024 C.2       1 <0>         0.0911
      3 C3          8.4547    1.9476    7.6649 C.ar      1 <0>        -0.4196
      4 C4          7.7673    0.7358    7.6490 C.ar      1 <0>         0.5123
      5 N1          7.3827    0.0794    6.5338 N.ar      1 <0>        -0.7544
      6 C5          7.7150    0.6834    5.3870 C.ar      1 <0>         0.9309
      7 N2          8.3793    1.8433    5.2587 N.ar      1 <0>        -0.8123
      8 C6          8.7478    2.4652    6.4091 C.ar      1 <0>         0.6339
      9 N3          9.4669    3.6893    6.3241 N.am      1 <0>        -0.4110
     10 C7          9.9005    4.3810    7.4473 C.2       1 <0>         0.7204
     11 O1         10.5374    5.4352    7.3967 O.2       1 <0>        -0.6127
     12 C8          9.5664    3.7969    8.7913 C.2       1 <0>        -0.2845
     13 C9         10.0373    4.5164    9.9933 C.2       1 <0>         0.6020
     14 O2          9.2297    4.9289   10.8193 O.2       1 <0>        -0.5098
     15 C10        11.5182    4.7059   10.1559 C.3       1 <0>        -0.1922
     16 C11         9.7522    4.2011    4.9957 C.3       1 <0>         0.0918
     17 C12        11.2378    4.4522    4.7672 C.3       1 <0>        -0.0926
     18 C13        11.2645    5.3745    3.5512 C.3       1 <0>        -0.0770
     19 C14         9.9162    6.1003    3.5411 C.3       1 <0>        -0.0770
     20 C15         9.1476    5.5786    4.7523 C.3       1 <0>        -0.0926
     21 N4          7.3314    0.0371    4.1922 N.pl3     1 <0>        -0.8130
     22 C16         7.5032    0.3649    2.8341 C.ar      1 <0>         0.6020
     23 C17         6.9859   -0.5170    1.8990 C.ar      1 <0>        -0.2047
     24 C18         7.1462   -0.2065    0.5532 C.ar      1 <0>        -0.1117
     25 C19         7.8095    0.9600    0.1889 C.ar      1 <0>         0.0138
     26 C20         8.2898    1.7759    1.2005 C.ar      1 <0>         0.3757
     27 N5          8.1532    1.5075    2.5184 N.ar      1 <0>        -0.6854
     28 N6          7.9854    1.2998   -1.1572 N.pl3     1 <0>        -0.6420
     29 C21         6.7864    1.4755   -1.9881 C.3       1 <0>         0.1894
     30 C22         7.1351    1.3280   -3.4687 C.3       1 <0>         0.1587
     31 N7          8.2322    2.2165   -3.8495 N.3       1 <0>        -0.8161
     32 C23         9.4237    1.9112   -3.0594 C.3       1 <0>         0.1587
     33 C24         9.1602    2.0789   -1.5631 C.3       1 <0>         0.1894
     34 H1          7.8673    1.0911    9.9885 H         1 <0>         0.0606
     35 H2          7.7808    2.7133   10.7549 H         1 <0>         0.0606
     36 H3          9.3119    1.7754   10.8080 H         1 <0>         0.0606
     37 H4          7.4875    0.2175    8.5610 H         1 <0>         0.0329
     38 H5         11.7175    5.2535   11.0888 H         1 <0>         0.0671
     39 H6         11.9103    5.2795    9.3031 H         1 <0>         0.0671
     40 H7         12.0115    3.7235   10.1949 H         1 <0>         0.0671
     41 H8          9.3234    3.3973    4.3792 H         1 <0>         0.0928
     42 H9         11.6711    4.9263    5.6602 H         1 <0>         0.0594
     43 H10        11.7463    3.4956    4.5767 H         1 <0>         0.0594
     44 H11        12.0977    6.0860    3.6489 H         1 <0>         0.0440
     45 H12        11.3995    4.7748    2.6390 H         1 <0>         0.0440
     46 H13        10.0832    7.1851    3.6138 H         1 <0>         0.0440
     47 H14         9.3845    5.8731    2.6053 H         1 <0>         0.0440
     48 H15         8.0710    5.4761    4.5510 H         1 <0>         0.0594
     49 H16         9.2959    6.2068    5.6430 H         1 <0>         0.0594
     50 H17         6.7859   -0.9172    4.2338 H         1 <0>         0.4647
     51 H18         6.4691   -1.4249    2.1922 H         1 <0>         0.1638
     52 H19         6.7514   -0.8795   -0.2031 H         1 <0>         0.1467
     53 H20         8.8157    2.6997    0.9786 H         1 <0>         0.0268
     54 H21         6.0393    0.7142   -1.7194 H         1 <0>         0.0446
     55 H22         6.3661    2.4777   -1.8181 H         1 <0>         0.0446
     56 H23         7.4394    0.2907   -3.6721 H         1 <0>         0.0379
     57 H24         6.2551    1.5784   -4.0794 H         1 <0>         0.0379
     58 H25         8.4618    2.0791   -4.9165 H         1 <0>         0.3652
     59 H26         9.7301    0.8712   -3.2450 H         1 <0>         0.0379
     60 H27        10.2391    2.5907   -3.3481 H         1 <0>         0.0379
     61 H28         8.9861    3.1436   -1.3483 H         1 <0>         0.0446
     62 H29        10.0416    1.7314   -1.0042 H         1 <0>         0.0446
@<TRIPOS>BOND
     1    1    2 1
     2    1   34 1
     3    1   35 1
     4    1   36 1
     5    2   12 2
     6    2    3 1
     7    3    8 ar
     8    3    4 ar
     9    4    5 ar
    10    4   37 1
    11    5    6 ar
    12    6    7 ar
    13    6   21 1
    14    7    8 ar
    15    8    9 1
    16    9   10 am
    17    9   16 1
    18   10   11 2
    19   10   12 1
    20   12   13 1
    21   13   14 2
    22   13   15 1
    23   15   38 1
    24   15   39 1
    25   15   40 1
    26   16   20 1
    27   16   17 1
    28   16   41 1
    29   17   18 1
    30   17   42 1
    31   17   43 1
    32   18   19 1
    33   18   44 1
    34   18   45 1
    35   19   20 1
    36   19   46 1
    37   19   47 1
    38   20   48 1
    39   20   49 1
    40   21   22 1
    41   21   50 1
    42   22   27 ar
    43   22   23 ar
    44   23   24 ar
    45   23   51 1
    46   24   25 ar
    47   24   52 1
    48   25   26 ar
    49   25   28 1
    50   26   27 ar
    51   26   53 1
    52   28   33 1
    53   28   29 1
    54   29   30 1
    55   29   54 1
    56   29   55 1
    57   30   31 1
    58   30   56 1
    59   30   57 1
    60   31   32 1
    61   31   58 1
    62   32   33 1
    63   32   59 1
    64   32   60 1
    65   33   61 1
    66   33   62 1
