LQQ
  CCTOOLS-0502160711

 62 66  0  0  0  0  0  0  0  0999 V2000
   32.4090   28.5440   60.1410 O   0  0  0  0  0
   33.0080   27.5190   59.9010 C   0  0  0  0  0
   34.3120   27.5070   59.1620 C   0  0  0  0  0
   32.4150   26.2120   60.3390 C   0  0  0  0  0
   32.6480   25.6900   61.6150 C   0  0  0  0  0
   33.4290   26.4260   62.6690 C   0  0  0  0  0
   31.9290   24.4600   62.0050 C   0  0  0  0  0
   32.1990   23.7830   63.2720 C   0  0  0  0  0
   31.5880   22.6260   63.5420 N   0  0  0  0  0
   30.8720   21.9680   62.6070 C   0  0  0  0  0
   30.7030   22.5010   61.3540 N   0  0  0  0  0
   31.2660   23.6800   60.9670 C   0  0  0  0  0
   31.0700   24.2300   59.7410 N   0  0  0  0  0
   30.2950   23.4750   58.7390 C   0  0  0  0  0
   29.2130   24.2680   58.0150 C   0  0  0  0  0
   29.2870   23.8720   56.5360 C   0  0  0  0  0
   30.5060   22.9550   56.3320 C   0  0  0  0  0
   31.2520   22.9450   57.6650 C   0  0  0  0  0
   31.6630   25.4930   59.4060 C   0  0  0  0  0
   31.5220   26.0010   58.2620 O   0  0  0  0  0
   30.3500   20.7760   63.0170 N   0  0  0  0  0
   29.6660   19.8610   62.2880 C   0  0  0  0  0
   29.5140   18.6170   62.8010 N   0  0  0  0  0
   28.8440   17.6710   62.1330 C   0  0  0  0  0
   28.2800   17.9460   60.8870 C   0  0  0  0  0
   28.4240   19.2200   60.3470 C   0  0  0  0  0
   29.1170   20.1840   61.0520 C   0  0  0  0  0
   27.5710   16.9530   60.1740 N   0  0  0  0  0
   28.4660   15.8000   59.9060 C   0  0  0  0  0
   27.7120   14.6830   59.1890 C   0  0  0  0  0
   27.0440   15.1960   58.0030 N   0  0  0  0  0
   26.3410   16.4760   58.0250 C   0  0  0  0  0
   26.9860   17.5260   58.9330 C   0  0  0  0  0
   34.8800   26.6060   59.4360 H   0  0  0  0  0
   34.8930   28.4020   59.4290 H   0  0  0  0  0
   34.1200   27.5040   58.0790 H   0  0  0  0  0
   33.4640   25.8220   63.5880 H   0  0  0  0  0
   32.9410   27.3890   62.8810 H   0  0  0  0  0
   34.4530   26.6060   62.3090 H   0  0  0  0  0
   32.8870   24.2150   63.9840 H   0  0  0  0  0
   29.7880   22.6840   59.3110 H   0  0  0  0  0
   29.3680   25.3500   58.1400 H   0  0  0  0  0
   28.2220   24.0270   58.4270 H   0  0  0  0  0
   29.3870   24.7720   55.9120 H   0  0  0  0  0
   28.3690   23.3390   56.2480 H   0  0  0  0  0
   31.1480   23.3160   55.5150 H   0  0  0  0  0
   30.1860   21.9390   56.0590 H   0  0  0  0  0
   31.5820   21.9250   57.9130 H   0  0  0  0  0
   32.1430   23.5870   57.6040 H   0  0  0  0  0
   30.4900   20.5480   63.9800 H   0  0  0  0  0
   28.7390   16.6860   62.5620 H   0  0  0  0  0
   27.9970   19.4530   59.3830 H   0  0  0  0  0
   29.2310   21.1790   60.6470 H   0  0  0  0  0
   28.8410   15.4140   60.8650 H   0  0  0  0  0
   29.3010   16.1340   59.2720 H   0  0  0  0  0
   26.9550   14.2700   59.8720 H   0  0  0  0  0
   28.4260   13.9010   58.8900 H   0  0  0  0  0
   27.7580   15.2900   57.3090 H   0  0  0  0  0
   25.3340   16.2820   58.4240 H   0  0  0  0  0
   26.3290   16.8750   57.0000 H   0  0  0  0  0
   27.8080   17.9880   58.3670 H   0  0  0  0  0
   26.2120   18.2520   59.2220 H   0  0  0  0  0
  1  2  2  0  0  0
  2  3  1  0  0  0
  2  4  1  0  0  0
  3 34  1  0  0  0
  3 35  1  0  0  0
  3 36  1  0  0  0
  4  5  2  0  0  0
  4 19  1  0  0  0
  5  6  1  0  0  0
  5  7  1  0  0  0
  6 37  1  0  0  0
  6 38  1  0  0  0
  6 39  1  0  0  0
  7  8  1  0  0  0
  7 12  2  0  0  0
  8  9  2  0  0  0
  8 40  1  0  0  0
  9 10  1  0  0  0
 10 11  2  0  0  0
 10 21  1  0  0  0
 11 12  1  0  0  0
 12 13  1  0  0  0
 13 14  1  0  0  0
 13 19  1  0  0  0
 14 15  1  0  0  0
 14 18  1  0  0  0
 14 41  1  0  0  0
 15 16  1  0  0  0
 15 42  1  0  0  0
 15 43  1  0  0  0
 16 17  1  0  0  0
 16 44  1  0  0  0
 16 45  1  0  0  0
 17 18  1  0  0  0
 17 46  1  0  0  0
 17 47  1  0  0  0
 18 48  1  0  0  0
 18 49  1  0  0  0
 19 20  2  0  0  0
 21 22  1  0  0  0
 21 50  1  0  0  0
 22 23  2  0  0  0
 22 27  1  0  0  0
 23 24  1  0  0  0
 24 25  2  0  0  0
 24 51  1  0  0  0
 25 26  1  0  0  0
 25 28  1  0  0  0
 26 27  2  0  0  0
 26 52  1  0  0  0
 27 53  1  0  0  0
 28 29  1  0  0  0
 28 33  1  0  0  0
 29 30  1  0  0  0
 29 54  1  0  0  0
 29 55  1  0  0  0
 30 31  1  0  0  0
 30 56  1  0  0  0
 30 57  1  0  0  0
 31 32  1  0  0  0
 31 58  1  0  0  0
 32 33  1  0  0  0
 32 59  1  0  0  0
 32 60  1  0  0  0
 33 61  1  0  0  0
 33 62  1  0  0  0
M  END
$$$$
