6-acetyl-8-cyclopentyl-5-methyl-2-[(5-piperazin-1-yl-2-pyridyl)amino]pyrido[2,3-d]pyrimidin-7-one
                    3D
 Structure written by MMmdl.
 63 67  0  0  1  0            999 V2000
    8.4256    2.0145   10.2019 C   0  0  0  0  0  0
    8.8610    2.6517    8.9024 C   0  0  0  0  0  0
    8.4547    1.9476    7.6649 C   0  0  0  0  0  0
    7.7673    0.7358    7.6490 C   0  0  0  0  0  0
    7.3827    0.0794    6.5338 N   0  0  0  0  0  0
    7.7150    0.6834    5.3870 C   0  0  0  0  0  0
    8.3793    1.8433    5.2587 N   0  0  0  0  0  0
    8.7478    2.4652    6.4091 C   0  0  0  0  0  0
    9.4669    3.6893    6.3241 N   0  0  0  0  0  0
    9.9005    4.3810    7.4473 C   0  0  0  0  0  0
   10.5374    5.4352    7.3967 O   0  0  0  0  0  0
    9.5664    3.7969    8.7913 C   0  0  0  0  0  0
   10.0373    4.5164    9.9933 C   0  0  0  0  0  0
    9.2297    4.9289   10.8193 O   0  0  0  0  0  0
   11.5182    4.7059   10.1559 C   0  0  0  0  0  0
    9.7522    4.2011    4.9957 C   0  0  0  0  0  0
   11.2378    4.4522    4.7672 C   0  0  0  0  0  0
   11.2645    5.3745    3.5512 C   0  0  0  0  0  0
    9.9162    6.1003    3.5411 C   0  0  0  0  0  0
    9.1476    5.5786    4.7523 C   0  0  0  0  0  0
    7.3314    0.0371    4.1922 N   0  0  0  0  0  0
    7.5032    0.3649    2.8341 C   0  0  0  0  0  0
    6.9859   -0.5170    1.8990 C   0  0  0  0  0  0
    7.1462   -0.2065    0.5532 C   0  0  0  0  0  0
    7.8095    0.9600    0.1889 C   0  0  0  0  0  0
    8.2898    1.7759    1.2005 C   0  0  0  0  0  0
    8.1532    1.5075    2.5184 N   0  0  0  0  0  0
    7.9854    1.2998   -1.1572 N   0  0  0  0  0  0
    6.7864    1.4755   -1.9881 C   0  0  0  0  0  0
    7.1351    1.3280   -3.4687 C   0  0  0  0  0  0
    8.2322    2.2165   -3.8495 N   0  3  0  0  0  0
    9.4237    1.9112   -3.0594 C   0  0  0  0  0  0
    9.1602    2.0789   -1.5631 C   0  0  0  0  0  0
    7.8673    1.0911    9.9885 H   0  0  0  0  0  0
    7.7808    2.7133   10.7549 H   0  0  0  0  0  0
    9.3119    1.7754   10.8080 H   0  0  0  0  0  0
    7.4875    0.2175    8.5610 H   0  0  0  0  0  0
   11.7175    5.2535   11.0888 H   0  0  0  0  0  0
   11.9103    5.2795    9.3031 H   0  0  0  0  0  0
   12.0115    3.7235   10.1949 H   0  0  0  0  0  0
    9.3234    3.3973    4.3792 H   0  0  0  0  0  0
   11.6711    4.9263    5.6602 H   0  0  0  0  0  0
   11.7463    3.4956    4.5767 H   0  0  0  0  0  0
   12.0977    6.0860    3.6489 H   0  0  0  0  0  0
   11.3995    4.7748    2.6390 H   0  0  0  0  0  0
   10.0832    7.1851    3.6138 H   0  0  0  0  0  0
    9.3845    5.8731    2.6053 H   0  0  0  0  0  0
    8.0710    5.4761    4.5510 H   0  0  0  0  0  0
    9.2959    6.2068    5.6430 H   0  0  0  0  0  0
    6.7859   -0.9172    4.2338 H   0  0  0  0  0  0
    6.4691   -1.4249    2.1922 H   0  0  0  0  0  0
    6.7514   -0.8795   -0.2031 H   0  0  0  0  0  0
    8.8157    2.6997    0.9786 H   0  0  0  0  0  0
    6.0393    0.7142   -1.7194 H   0  0  0  0  0  0
    6.3661    2.4777   -1.8181 H   0  0  0  0  0  0
    7.4394    0.2907   -3.6721 H   0  0  0  0  0  0
    6.2551    1.5784   -4.0794 H   0  0  0  0  0  0
    8.4618    2.0791   -4.9165 H   0  0  0  0  0  0
    9.7301    0.8712   -3.2450 H   0  0  0  0  0  0
   10.2391    2.5907   -3.3481 H   0  0  0  0  0  0
    8.9861    3.1436   -1.3483 H   0  0  0  0  0  0
   10.0416    1.7314   -1.0042 H   0  0  0  0  0  0
    7.9376    3.2609   -3.6694 H   0  0  0  0  0  0
  1  2  1  0  0  0
  1 34  1  0  0  0
  1 35  1  0  0  0
  1 36  1  0  0  0
  2 12  2  0  0  0
  2  3  1  0  0  0
  3  8  2  0  0  0
  3  4  1  0  0  0
  4  5  2  0  0  0
  4 37  1  0  0  0
  5  6  1  0  0  0
  6  7  2  0  0  0
  6 21  1  0  0  0
  7  8  1  0  0  0
  8  9  1  0  0  0
  9 10  1  0  0  0
  9 16  1  0  0  0
 10 11  2  0  0  0
 10 12  1  0  0  0
 12 13  1  0  0  0
 13 14  2  0  0  0
 13 15  1  0  0  0
 15 38  1  0  0  0
 15 39  1  0  0  0
 15 40  1  0  0  0
 16 20  1  0  0  0
 16 17  1  0  0  0
 16 41  1  0  0  0
 17 18  1  0  0  0
 17 42  1  0  0  0
 17 43  1  0  0  0
 18 19  1  0  0  0
 18 44  1  0  0  0
 18 45  1  0  0  0
 19 20  1  0  0  0
 19 46  1  0  0  0
 19 47  1  0  0  0
 20 48  1  0  0  0
 20 49  1  0  0  0
 21 22  1  0  0  0
 21 50  1  0  0  0
 22 27  2  0  0  0
 22 23  1  0  0  0
 23 24  2  0  0  0
 23 51  1  0  0  0
 24 25  1  0  0  0
 24 52  1  0  0  0
 25 26  2  0  0  0
 25 28  1  0  0  0
 26 27  1  0  0  0
 26 53  1  0  0  0
 28 33  1  0  0  0
 28 29  1  0  0  0
 29 30  1  0  0  0
 29 54  1  0  0  0
 29 55  1  0  0  0
 30 31  1  0  0  0
 30 56  1  0  0  0
 30 57  1  0  0  0
 31 32  1  0  0  0
 31 58  1  0  0  0
 31 63  1  0  0  0
 32 33  1  0  0  0
 32 59  1  0  0  0
 32 60  1  0  0  0
 33 61  1  0  0  0
 33 62  1  0  0  0
M  CHG  1  31   1
M  END
> <s_m_source_file>
/Users/andrea/Development/mcce-charges/epik_inhibitors/output/Palbociclib/Palbociclib-input.mol2

> <i_m_source_file_index>
1

> <r_lp_tautomer_probability>
0.999940280531876

> <r_epik_Ionization_Penalty>
  0.1984

> <r_epik_Ionization_Penalty_Charging>
  0.0243

> <r_epik_Ionization_Penalty_Neutral>
  0.1740

> <r_epik_State_Penalty>
  0.1590

> <i_epik_Tot_Q>
1

> <s_epik_Chemistry_Notes>
This compound has an imine and may undergo hydrolysis.

$$$$
6-acetyl-8-cyclopentyl-5-methyl-2-[(5-piperazin-1-yl-2-pyridyl)amino]pyrido[2,3-d]pyrimidin-7-one
                    3D
 Structure written by MMmdl.
 64 68  0  0  1  0            999 V2000
    8.4256    2.0145   10.2019 C   0  0  0  0  0  0
    8.8610    2.6517    8.9024 C   0  0  0  0  0  0
    8.4547    1.9476    7.6649 C   0  0  0  0  0  0
    7.7673    0.7358    7.6490 C   0  0  0  0  0  0
    7.3827    0.0794    6.5338 N   0  0  0  0  0  0
    7.7150    0.6834    5.3870 C   0  0  0  0  0  0
    8.3793    1.8433    5.2587 N   0  0  0  0  0  0
    8.7478    2.4652    6.4091 C   0  0  0  0  0  0
    9.4669    3.6893    6.3241 N   0  0  0  0  0  0
    9.9005    4.3810    7.4473 C   0  0  0  0  0  0
   10.5374    5.4352    7.3967 O   0  0  0  0  0  0
    9.5664    3.7969    8.7913 C   0  0  0  0  0  0
   10.0373    4.5164    9.9933 C   0  0  0  0  0  0
    9.2297    4.9289   10.8193 O   0  0  0  0  0  0
   11.5182    4.7059   10.1559 C   0  0  0  0  0  0
    9.7522    4.2011    4.9957 C   0  0  0  0  0  0
   11.2378    4.4522    4.7672 C   0  0  0  0  0  0
   11.2645    5.3745    3.5512 C   0  0  0  0  0  0
    9.9162    6.1003    3.5411 C   0  0  0  0  0  0
    9.1476    5.5786    4.7523 C   0  0  0  0  0  0
    7.3314    0.0371    4.1922 N   0  0  0  0  0  0
    7.5032    0.3649    2.8341 C   0  0  0  0  0  0
    6.9859   -0.5170    1.8990 C   0  0  0  0  0  0
    7.1462   -0.2065    0.5532 C   0  0  0  0  0  0
    7.8095    0.9600    0.1889 C   0  0  0  0  0  0
    8.2898    1.7759    1.2005 C   0  0  0  0  0  0
    8.1532    1.5075    2.5184 N   0  3  0  0  0  0
    7.9854    1.2998   -1.1572 N   0  0  0  0  0  0
    6.7864    1.4755   -1.9881 C   0  0  0  0  0  0
    7.1351    1.3280   -3.4687 C   0  0  0  0  0  0
    8.2322    2.2165   -3.8495 N   0  3  0  0  0  0
    9.4237    1.9112   -3.0594 C   0  0  0  0  0  0
    9.1602    2.0789   -1.5631 C   0  0  0  0  0  0
    7.8673    1.0911    9.9885 H   0  0  0  0  0  0
    7.7808    2.7133   10.7549 H   0  0  0  0  0  0
    9.3119    1.7754   10.8080 H   0  0  0  0  0  0
    7.4875    0.2175    8.5610 H   0  0  0  0  0  0
   11.7175    5.2535   11.0888 H   0  0  0  0  0  0
   11.9103    5.2795    9.3031 H   0  0  0  0  0  0
   12.0115    3.7235   10.1949 H   0  0  0  0  0  0
    9.3234    3.3973    4.3792 H   0  0  0  0  0  0
   11.6711    4.9263    5.6602 H   0  0  0  0  0  0
   11.7463    3.4956    4.5767 H   0  0  0  0  0  0
   12.0977    6.0860    3.6489 H   0  0  0  0  0  0
   11.3995    4.7748    2.6390 H   0  0  0  0  0  0
   10.0832    7.1851    3.6138 H   0  0  0  0  0  0
    9.3845    5.8731    2.6053 H   0  0  0  0  0  0
    8.0710    5.4761    4.5510 H   0  0  0  0  0  0
    9.2959    6.2068    5.6430 H   0  0  0  0  0  0
    6.7859   -0.9172    4.2338 H   0  0  0  0  0  0
    6.4691   -1.4249    2.1922 H   0  0  0  0  0  0
    6.7514   -0.8795   -0.2031 H   0  0  0  0  0  0
    8.8157    2.6997    0.9786 H   0  0  0  0  0  0
    6.0393    0.7142   -1.7194 H   0  0  0  0  0  0
    6.3661    2.4777   -1.8181 H   0  0  0  0  0  0
    7.4394    0.2907   -3.6721 H   0  0  0  0  0  0
    6.2551    1.5784   -4.0794 H   0  0  0  0  0  0
    8.4618    2.0791   -4.9165 H   0  0  0  0  0  0
    9.7301    0.8712   -3.2450 H   0  0  0  0  0  0
   10.2391    2.5907   -3.3481 H   0  0  0  0  0  0
    8.9861    3.1436   -1.3483 H   0  0  0  0  0  0
   10.0416    1.7314   -1.0042 H   0  0  0  0  0  0
    7.9376    3.2609   -3.6694 H   0  0  0  0  0  0
    8.5372    2.1602    3.3162 H   0  0  0  0  0  0
  1  2  1  0  0  0
  1 34  1  0  0  0
  1 35  1  0  0  0
  1 36  1  0  0  0
  2 12  2  0  0  0
  2  3  1  0  0  0
  3  8  2  0  0  0
  3  4  1  0  0  0
  4  5  2  0  0  0
  4 37  1  0  0  0
  5  6  1  0  0  0
  6  7  2  0  0  0
  6 21  1  0  0  0
  7  8  1  0  0  0
  8  9  1  0  0  0
  9 10  1  0  0  0
  9 16  1  0  0  0
 10 11  2  0  0  0
 10 12  1  0  0  0
 12 13  1  0  0  0
 13 14  2  0  0  0
 13 15  1  0  0  0
 15 38  1  0  0  0
 15 39  1  0  0  0
 15 40  1  0  0  0
 16 20  1  0  0  0
 16 17  1  0  0  0
 16 41  1  0  0  0
 17 18  1  0  0  0
 17 42  1  0  0  0
 17 43  1  0  0  0
 18 19  1  0  0  0
 18 44  1  0  0  0
 18 45  1  0  0  0
 19 20  1  0  0  0
 19 46  1  0  0  0
 19 47  1  0  0  0
 20 48  1  0  0  0
 20 49  1  0  0  0
 21 22  1  0  0  0
 21 50  1  0  0  0
 22 27  2  0  0  0
 22 23  1  0  0  0
 23 24  2  0  0  0
 23 51  1  0  0  0
 24 25  1  0  0  0
 24 52  1  0  0  0
 25 26  2  0  0  0
 25 28  1  0  0  0
 26 27  1  0  0  0
 26 53  1  0  0  0
 27 64  1  0  0  0
 28 33  1  0  0  0
 28 29  1  0  0  0
 29 30  1  0  0  0
 29 54  1  0  0  0
 29 55  1  0  0  0
 30 31  1  0  0  0
 30 56  1  0  0  0
 30 57  1  0  0  0
 31 32  1  0  0  0
 31 58  1  0  0  0
 31 63  1  0  0  0
 32 33  1  0  0  0
 32 59  1  0  0  0
 32 60  1  0  0  0
 33 61  1  0  0  0
 33 62  1  0  0  0
M  CHG  2  27   1  31   1
M  END
> <s_m_source_file>
/Users/andrea/Development/mcce-charges/epik_inhibitors/output/Palbociclib/Palbociclib-input.mol2

> <i_m_source_file_index>
1

> <r_lp_tautomer_probability>
0.999943852345196

> <r_epik_Ionization_Penalty>
  0.9091

> <r_epik_Ionization_Penalty_Charging>
  0.9091

> <r_epik_Ionization_Penalty_Neutral>
  0.0000

> <r_epik_State_Penalty>
  1.3138

> <i_epik_Tot_Q>
2

> <s_epik_Chemistry_Notes>
This compound has an imine and may undergo hydrolysis.

$$$$
6-acetyl-8-cyclopentyl-5-methyl-2-[(5-piperazin-1-yl-2-pyridyl)amino]pyrido[2,3-d]pyrimidin-7-one
                    3D
 Structure written by MMmdl.
 62 66  0  0  1  0            999 V2000
    8.4256    2.0145   10.2019 C   0  0  0  0  0  0
    8.8610    2.6517    8.9024 C   0  0  0  0  0  0
    8.4547    1.9476    7.6649 C   0  0  0  0  0  0
    7.7673    0.7358    7.6490 C   0  0  0  0  0  0
    7.3827    0.0794    6.5338 N   0  0  0  0  0  0
    7.7150    0.6834    5.3870 C   0  0  0  0  0  0
    8.3793    1.8433    5.2587 N   0  0  0  0  0  0
    8.7478    2.4652    6.4091 C   0  0  0  0  0  0
    9.4669    3.6893    6.3241 N   0  0  0  0  0  0
    9.9005    4.3810    7.4473 C   0  0  0  0  0  0
   10.5374    5.4352    7.3967 O   0  0  0  0  0  0
    9.5664    3.7969    8.7913 C   0  0  0  0  0  0
   10.0373    4.5164    9.9933 C   0  0  0  0  0  0
    9.2297    4.9289   10.8193 O   0  0  0  0  0  0
   11.5182    4.7059   10.1559 C   0  0  0  0  0  0
    9.7522    4.2011    4.9957 C   0  0  0  0  0  0
   11.2378    4.4522    4.7672 C   0  0  0  0  0  0
   11.2645    5.3745    3.5512 C   0  0  0  0  0  0
    9.9162    6.1003    3.5411 C   0  0  0  0  0  0
    9.1476    5.5786    4.7523 C   0  0  0  0  0  0
    7.3314    0.0371    4.1922 N   0  0  0  0  0  0
    7.5032    0.3649    2.8341 C   0  0  0  0  0  0
    6.9859   -0.5170    1.8990 C   0  0  0  0  0  0
    7.1462   -0.2065    0.5532 C   0  0  0  0  0  0
    7.8095    0.9600    0.1889 C   0  0  0  0  0  0
    8.2898    1.7759    1.2005 C   0  0  0  0  0  0
    8.1532    1.5075    2.5184 N   0  0  0  0  0  0
    7.9854    1.2998   -1.1572 N   0  0  0  0  0  0
    6.7864    1.4755   -1.9881 C   0  0  0  0  0  0
    7.1351    1.3280   -3.4687 C   0  0  0  0  0  0
    8.2322    2.2165   -3.8495 N   0  0  0  0  0  0
    9.4237    1.9112   -3.0594 C   0  0  0  0  0  0
    9.1602    2.0789   -1.5631 C   0  0  0  0  0  0
    7.8673    1.0911    9.9885 H   0  0  0  0  0  0
    7.7808    2.7133   10.7549 H   0  0  0  0  0  0
    9.3119    1.7754   10.8080 H   0  0  0  0  0  0
    7.4875    0.2175    8.5610 H   0  0  0  0  0  0
   11.7175    5.2535   11.0888 H   0  0  0  0  0  0
   11.9103    5.2795    9.3031 H   0  0  0  0  0  0
   12.0115    3.7235   10.1949 H   0  0  0  0  0  0
    9.3234    3.3973    4.3792 H   0  0  0  0  0  0
   11.6711    4.9263    5.6602 H   0  0  0  0  0  0
   11.7463    3.4956    4.5767 H   0  0  0  0  0  0
   12.0977    6.0860    3.6489 H   0  0  0  0  0  0
   11.3995    4.7748    2.6390 H   0  0  0  0  0  0
   10.0832    7.1851    3.6138 H   0  0  0  0  0  0
    9.3845    5.8731    2.6053 H   0  0  0  0  0  0
    8.0710    5.4761    4.5510 H   0  0  0  0  0  0
    9.2959    6.2068    5.6430 H   0  0  0  0  0  0
    6.7859   -0.9172    4.2338 H   0  0  0  0  0  0
    6.4691   -1.4249    2.1922 H   0  0  0  0  0  0
    6.7514   -0.8795   -0.2031 H   0  0  0  0  0  0
    8.8157    2.6997    0.9786 H   0  0  0  0  0  0
    6.0393    0.7142   -1.7194 H   0  0  0  0  0  0
    6.3661    2.4777   -1.8181 H   0  0  0  0  0  0
    7.4394    0.2907   -3.6721 H   0  0  0  0  0  0
    6.2551    1.5784   -4.0794 H   0  0  0  0  0  0
    8.4618    2.0791   -4.9165 H   0  0  0  0  0  0
    9.7301    0.8712   -3.2450 H   0  0  0  0  0  0
   10.2391    2.5907   -3.3481 H   0  0  0  0  0  0
    8.9861    3.1436   -1.3483 H   0  0  0  0  0  0
   10.0416    1.7314   -1.0042 H   0  0  0  0  0  0
  1  2  1  0  0  0
  1 34  1  0  0  0
  1 35  1  0  0  0
  1 36  1  0  0  0
  2 12  2  0  0  0
  2  3  1  0  0  0
  3  8  2  0  0  0
  3  4  1  0  0  0
  4  5  2  0  0  0
  4 37  1  0  0  0
  5  6  1  0  0  0
  6  7  2  0  0  0
  6 21  1  0  0  0
  7  8  1  0  0  0
  8  9  1  0  0  0
  9 10  1  0  0  0
  9 16  1  0  0  0
 10 11  2  0  0  0
 10 12  1  0  0  0
 12 13  1  0  0  0
 13 14  2  0  0  0
 13 15  1  0  0  0
 15 38  1  0  0  0
 15 39  1  0  0  0
 15 40  1  0  0  0
 16 20  1  0  0  0
 16 17  1  0  0  0
 16 41  1  0  0  0
 17 18  1  0  0  0
 17 42  1  0  0  0
 17 43  1  0  0  0
 18 19  1  0  0  0
 18 44  1  0  0  0
 18 45  1  0  0  0
 19 20  1  0  0  0
 19 46  1  0  0  0
 19 47  1  0  0  0
 20 48  1  0  0  0
 20 49  1  0  0  0
 21 22  1  0  0  0
 21 50  1  0  0  0
 22 27  2  0  0  0
 22 23  1  0  0  0
 23 24  2  0  0  0
 23 51  1  0  0  0
 24 25  1  0  0  0
 24 52  1  0  0  0
 25 26  2  0  0  0
 25 28  1  0  0  0
 26 27  1  0  0  0
 26 53  1  0  0  0
 28 33  1  0  0  0
 28 29  1  0  0  0
 29 30  1  0  0  0
 29 54  1  0  0  0
 29 55  1  0  0  0
 30 31  1  0  0  0
 30 56  1  0  0  0
 30 57  1  0  0  0
 31 32  1  0  0  0
 31 58  1  0  0  0
 32 33  1  0  0  0
 32 59  1  0  0  0
 32 60  1  0  0  0
 33 61  1  0  0  0
 33 62  1  0  0  0
M  END
> <s_m_source_file>
/Users/andrea/Development/mcce-charges/epik_inhibitors/output/Palbociclib/Palbociclib-input.mol2

> <i_m_source_file_index>
1

> <r_lp_tautomer_probability>
0.999940280531876

> <r_epik_Ionization_Penalty>
  2.8985

> <r_epik_Ionization_Penalty_Charging>
  0.0000

> <r_epik_Ionization_Penalty_Neutral>
  2.8985

> <r_epik_State_Penalty>
  1.3205

> <i_epik_Tot_Q>
0

> <s_epik_Chemistry_Notes>
This compound has an imine and may undergo hydrolysis.

$$$$
6-acetyl-8-cyclopentyl-5-methyl-2-[(5-piperazin-1-yl-2-pyridyl)amino]pyrido[2,3-d]pyrimidin-7-one
                    3D
 Structure written by MMmdl.
 63 67  0  0  1  0            999 V2000
    8.4256    2.0145   10.2019 C   0  0  0  0  0  0
    8.8610    2.6517    8.9024 C   0  0  0  0  0  0
    8.4547    1.9476    7.6649 C   0  0  0  0  0  0
    7.7673    0.7358    7.6490 C   0  0  0  0  0  0
    7.3827    0.0794    6.5338 N   0  0  0  0  0  0
    7.7150    0.6834    5.3870 C   0  0  0  0  0  0
    8.3793    1.8433    5.2587 N   0  0  0  0  0  0
    8.7478    2.4652    6.4091 C   0  0  0  0  0  0
    9.4669    3.6893    6.3241 N   0  0  0  0  0  0
    9.9005    4.3810    7.4473 C   0  0  0  0  0  0
   10.5374    5.4352    7.3967 O   0  0  0  0  0  0
    9.5664    3.7969    8.7913 C   0  0  0  0  0  0
   10.0373    4.5164    9.9933 C   0  0  0  0  0  0
    9.2297    4.9289   10.8193 O   0  0  0  0  0  0
   11.5182    4.7059   10.1559 C   0  0  0  0  0  0
    9.7522    4.2011    4.9957 C   0  0  0  0  0  0
   11.2378    4.4522    4.7672 C   0  0  0  0  0  0
   11.2645    5.3745    3.5512 C   0  0  0  0  0  0
    9.9162    6.1003    3.5411 C   0  0  0  0  0  0
    9.1476    5.5786    4.7523 C   0  0  0  0  0  0
    7.3314    0.0371    4.1922 N   0  0  0  0  0  0
    7.5032    0.3649    2.8341 C   0  0  0  0  0  0
    6.9859   -0.5170    1.8990 C   0  0  0  0  0  0
    7.1462   -0.2065    0.5532 C   0  0  0  0  0  0
    7.8095    0.9600    0.1889 C   0  0  0  0  0  0
    8.2898    1.7759    1.2005 C   0  0  0  0  0  0
    8.1532    1.5075    2.5184 N   0  3  0  0  0  0
    7.9854    1.2998   -1.1572 N   0  0  0  0  0  0
    6.7864    1.4755   -1.9881 C   0  0  0  0  0  0
    7.1351    1.3280   -3.4687 C   0  0  0  0  0  0
    8.2322    2.2165   -3.8495 N   0  0  0  0  0  0
    9.4237    1.9112   -3.0594 C   0  0  0  0  0  0
    9.1602    2.0789   -1.5631 C   0  0  0  0  0  0
    7.8673    1.0911    9.9885 H   0  0  0  0  0  0
    7.7808    2.7133   10.7549 H   0  0  0  0  0  0
    9.3119    1.7754   10.8080 H   0  0  0  0  0  0
    7.4875    0.2175    8.5610 H   0  0  0  0  0  0
   11.7175    5.2535   11.0888 H   0  0  0  0  0  0
   11.9103    5.2795    9.3031 H   0  0  0  0  0  0
   12.0115    3.7235   10.1949 H   0  0  0  0  0  0
    9.3234    3.3973    4.3792 H   0  0  0  0  0  0
   11.6711    4.9263    5.6602 H   0  0  0  0  0  0
   11.7463    3.4956    4.5767 H   0  0  0  0  0  0
   12.0977    6.0860    3.6489 H   0  0  0  0  0  0
   11.3995    4.7748    2.6390 H   0  0  0  0  0  0
   10.0832    7.1851    3.6138 H   0  0  0  0  0  0
    9.3845    5.8731    2.6053 H   0  0  0  0  0  0
    8.0710    5.4761    4.5510 H   0  0  0  0  0  0
    9.2959    6.2068    5.6430 H   0  0  0  0  0  0
    6.7859   -0.9172    4.2338 H   0  0  0  0  0  0
    6.4691   -1.4249    2.1922 H   0  0  0  0  0  0
    6.7514   -0.8795   -0.2031 H   0  0  0  0  0  0
    8.8157    2.6997    0.9786 H   0  0  0  0  0  0
    6.0393    0.7142   -1.7194 H   0  0  0  0  0  0
    6.3661    2.4777   -1.8181 H   0  0  0  0  0  0
    7.4394    0.2907   -3.6721 H   0  0  0  0  0  0
    6.2551    1.5784   -4.0794 H   0  0  0  0  0  0
    8.4618    2.0791   -4.9165 H   0  0  0  0  0  0
    9.7301    0.8712   -3.2450 H   0  0  0  0  0  0
   10.2391    2.5907   -3.3481 H   0  0  0  0  0  0
    8.9861    3.1436   -1.3483 H   0  0  0  0  0  0
   10.0416    1.7314   -1.0042 H   0  0  0  0  0  0
    8.5372    2.1602    3.3162 H   0  0  0  0  0  0
  1  2  1  0  0  0
  1 34  1  0  0  0
  1 35  1  0  0  0
  1 36  1  0  0  0
  2 12  2  0  0  0
  2  3  1  0  0  0
  3  8  2  0  0  0
  3  4  1  0  0  0
  4  5  2  0  0  0
  4 37  1  0  0  0
  5  6  1  0  0  0
  6  7  2  0  0  0
  6 21  1  0  0  0
  7  8  1  0  0  0
  8  9  1  0  0  0
  9 10  1  0  0  0
  9 16  1  0  0  0
 10 11  2  0  0  0
 10 12  1  0  0  0
 12 13  1  0  0  0
 13 14  2  0  0  0
 13 15  1  0  0  0
 15 38  1  0  0  0
 15 39  1  0  0  0
 15 40  1  0  0  0
 16 20  1  0  0  0
 16 17  1  0  0  0
 16 41  1  0  0  0
 17 18  1  0  0  0
 17 42  1  0  0  0
 17 43  1  0  0  0
 18 19  1  0  0  0
 18 44  1  0  0  0
 18 45  1  0  0  0
 19 20  1  0  0  0
 19 46  1  0  0  0
 19 47  1  0  0  0
 20 48  1  0  0  0
 20 49  1  0  0  0
 21 22  1  0  0  0
 21 50  1  0  0  0
 22 27  2  0  0  0
 22 23  1  0  0  0
 23 24  2  0  0  0
 23 51  1  0  0  0
 24 25  1  0  0  0
 24 52  1  0  0  0
 25 26  2  0  0  0
 25 28  1  0  0  0
 26 27  1  0  0  0
 26 53  1  0  0  0
 27 63  1  0  0  0
 28 33  1  0  0  0
 28 29  1  0  0  0
 29 30  1  0  0  0
 29 54  1  0  0  0
 29 55  1  0  0  0
 30 31  1  0  0  0
 30 56  1  0  0  0
 30 57  1  0  0  0
 31 32  1  0  0  0
 31 58  1  0  0  0
 32 33  1  0  0  0
 32 59  1  0  0  0
 32 60  1  0  0  0
 33 61  1  0  0  0
 33 62  1  0  0  0
M  CHG  1  27   1
M  END
> <s_m_source_file>
/Users/andrea/Development/mcce-charges/epik_inhibitors/output/Palbociclib/Palbociclib-input.mol2

> <i_m_source_file_index>
1

> <r_epik_Ionization_Penalty>
  1.2350

> <r_epik_Ionization_Penalty_Charging>
  0.1224

> <r_epik_Ionization_Penalty_Neutral>
  1.1126

> <r_epik_State_Penalty>
  2.3572

> <i_epik_Tot_Q>
1

> <s_epik_Chemistry_Notes>
This compound has an imine and may undergo hydrolysis.

$$$$
6-acetyl-8-cyclopentyl-5-methyl-2-[(5-piperazin-1-yl-2-pyridyl)amino]pyrido[2,3-d]pyrimidin-7-one
                    3D
 Structure written by MMmdl.
 63 67  0  0  1  0            999 V2000
    8.4256    2.0145   10.2019 C   0  0  0  0  0  0
    8.8610    2.6517    8.9024 C   0  0  0  0  0  0
    8.4547    1.9476    7.6649 C   0  0  0  0  0  0
    7.7673    0.7358    7.6490 C   0  0  0  0  0  0
    7.3827    0.0794    6.5338 N   0  0  0  0  0  0
    7.7150    0.6834    5.3870 C   0  0  0  0  0  0
    8.3793    1.8433    5.2587 N   0  0  0  0  0  0
    8.7478    2.4652    6.4091 C   0  0  0  0  0  0
    9.4669    3.6893    6.3241 N   0  0  0  0  0  0
    9.9005    4.3810    7.4473 C   0  0  0  0  0  0
   10.5374    5.4352    7.3967 O   0  0  0  0  0  0
    9.5664    3.7969    8.7913 C   0  0  0  0  0  0
   10.0373    4.5164    9.9933 C   0  0  0  0  0  0
    9.2293    4.9352   10.8157 O   0  0  0  0  0  0
   11.5182    4.7059   10.1559 C   0  0  0  0  0  0
    9.7522    4.2011    4.9957 C   0  0  0  0  0  0
   11.2378    4.4522    4.7672 C   0  0  0  0  0  0
   11.2645    5.3745    3.5512 C   0  0  0  0  0  0
    9.9162    6.1003    3.5411 C   0  0  0  0  0  0
    9.1476    5.5786    4.7523 C   0  0  0  0  0  0
    7.3314    0.0371    4.1922 N   0  0  0  0  0  0
    7.5032    0.3649    2.8341 C   0  0  0  0  0  0
    6.9859   -0.5170    1.8990 C   0  0  0  0  0  0
    7.1462   -0.2065    0.5532 C   0  0  0  0  0  0
    7.8095    0.9600    0.1889 C   0  0  0  0  0  0
    8.2898    1.7759    1.2005 C   0  0  0  0  0  0
    8.1532    1.5075    2.5184 N   0  0  0  0  0  0
    7.9854    1.2998   -1.1572 N   0  0  0  0  0  0
    6.7864    1.4755   -1.9881 C   0  0  0  0  0  0
    7.1351    1.3280   -3.4687 C   0  0  0  0  0  0
    8.2322    2.2165   -3.8495 N   0  3  0  0  0  0
    9.4237    1.9112   -3.0594 C   0  0  0  0  0  0
    9.1602    2.0789   -1.5631 C   0  0  0  0  0  0
    7.8673    1.0911    9.9885 H   0  0  0  0  0  0
    7.7808    2.7133   10.7549 H   0  0  0  0  0  0
    9.3119    1.7754   10.8080 H   0  0  0  0  0  0
    7.4875    0.2175    8.5610 H   0  0  0  0  0  0
   11.9115    5.2358   11.0359 H   0  0  0  0  0  0
   12.2096    4.3148    9.3950 H   0  0  0  0  0  0
    8.1523    4.7755   10.6592 H   0  0  0  0  0  0
    9.3234    3.3973    4.3792 H   0  0  0  0  0  0
   11.6711    4.9263    5.6602 H   0  0  0  0  0  0
   11.7463    3.4956    4.5767 H   0  0  0  0  0  0
   12.0977    6.0860    3.6489 H   0  0  0  0  0  0
   11.3995    4.7748    2.6390 H   0  0  0  0  0  0
   10.0832    7.1851    3.6138 H   0  0  0  0  0  0
    9.3845    5.8731    2.6053 H   0  0  0  0  0  0
    8.0710    5.4761    4.5510 H   0  0  0  0  0  0
    9.2959    6.2068    5.6430 H   0  0  0  0  0  0
    6.7859   -0.9172    4.2338 H   0  0  0  0  0  0
    6.5091   -1.3546    2.1655 H   0  0  0  0  0  0
    6.7854   -0.8212   -0.1482 H   0  0  0  0  0  0
    8.7714    2.6225    0.9739 H   0  0  0  0  0  0
    6.0393    0.7142   -1.7194 H   0  0  0  0  0  0
    6.3661    2.4777   -1.8181 H   0  0  0  0  0  0
    7.4394    0.2907   -3.6721 H   0  0  0  0  0  0
    6.2551    1.5784   -4.0794 H   0  0  0  0  0  0
    8.4618    2.0791   -4.9165 H   0  0  0  0  0  0
    9.7301    0.8712   -3.2450 H   0  0  0  0  0  0
   10.2391    2.5907   -3.3481 H   0  0  0  0  0  0
    8.9861    3.1436   -1.3483 H   0  0  0  0  0  0
   10.0416    1.7314   -1.0042 H   0  0  0  0  0  0
    7.9376    3.2609   -3.6694 H   0  0  0  0  0  0
  1  2  1  0  0  0
  1 34  1  0  0  0
  1 35  1  0  0  0
  1 36  1  0  0  0
  2 12  2  0  0  0
  2  3  1  0  0  0
  3  8  2  0  0  0
  3  4  1  0  0  0
  4  5  2  0  0  0
  4 37  1  0  0  0
  5  6  1  0  0  0
  6  7  2  0  0  0
  6 21  1  0  0  0
  7  8  1  0  0  0
  8  9  1  0  0  0
  9 10  1  0  0  0
  9 16  1  0  0  0
 10 11  2  0  0  0
 10 12  1  0  0  0
 12 13  1  0  0  0
 13 15  2  0  0  0
 13 14  1  0  0  0
 14 40  1  0  0  0
 15 38  1  0  0  0
 15 39  1  0  0  0
 16 20  1  0  0  0
 16 17  1  0  0  0
 16 41  1  0  0  0
 17 18  1  0  0  0
 17 42  1  0  0  0
 17 43  1  0  0  0
 18 19  1  0  0  0
 18 44  1  0  0  0
 18 45  1  0  0  0
 19 20  1  0  0  0
 19 46  1  0  0  0
 19 47  1  0  0  0
 20 48  1  0  0  0
 20 49  1  0  0  0
 21 22  1  0  0  0
 21 50  1  0  0  0
 22 27  2  0  0  0
 22 23  1  0  0  0
 23 24  2  0  0  0
 23 51  1  0  0  0
 24 25  1  0  0  0
 24 52  1  0  0  0
 25 26  2  0  0  0
 25 28  1  0  0  0
 26 27  1  0  0  0
 26 53  1  0  0  0
 28 33  1  0  0  0
 28 29  1  0  0  0
 29 30  1  0  0  0
 29 54  1  0  0  0
 29 55  1  0  0  0
 30 31  1  0  0  0
 30 56  1  0  0  0
 30 57  1  0  0  0
 31 32  1  0  0  0
 31 58  1  0  0  0
 31 63  1  0  0  0
 32 33  1  0  0  0
 32 59  1  0  0  0
 32 60  1  0  0  0
 33 61  1  0  0  0
 33 62  1  0  0  0
M  CHG  1  31   1
M  END
> <s_m_source_file>
/Users/andrea/Development/mcce-charges/epik_inhibitors/output/Palbociclib/Palbociclib-input.mol2

> <i_m_source_file_index>
1

> <r_lp_tautomer_probability>
4.99995140022939e-05

> <r_epik_Ionization_Penalty>
  0.2240

> <r_epik_Ionization_Penalty_Charging>
  0.0243

> <r_epik_Ionization_Penalty_Neutral>
  0.1996

> <r_epik_State_Penalty>
  6.1349

> <i_epik_Tot_Q>
1

> <s_epik_Chemistry_Notes>
This compound has an imine and may undergo hydrolysis.

$$$$
6-acetyl-8-cyclopentyl-5-methyl-2-[(5-piperazin-1-yl-2-pyridyl)amino]pyrido[2,3-d]pyrimidin-7-one
                    3D
 Structure written by MMmdl.
 64 68  0  0  1  0            999 V2000
    8.4256    2.0145   10.2019 C   0  0  0  0  0  0
    8.8610    2.6517    8.9024 C   0  0  0  0  0  0
    8.4547    1.9476    7.6649 C   0  0  0  0  0  0
    7.7673    0.7358    7.6490 C   0  0  0  0  0  0
    7.3827    0.0794    6.5338 N   0  0  0  0  0  0
    7.7150    0.6834    5.3870 C   0  0  0  0  0  0
    8.3793    1.8433    5.2587 N   0  0  0  0  0  0
    8.7478    2.4652    6.4091 C   0  0  0  0  0  0
    9.4669    3.6893    6.3241 N   0  0  0  0  0  0
    9.9005    4.3810    7.4473 C   0  0  0  0  0  0
   10.5374    5.4352    7.3967 O   0  0  0  0  0  0
    9.5664    3.7969    8.7913 C   0  0  0  0  0  0
   10.0373    4.5164    9.9933 C   0  0  0  0  0  0
    9.2297    4.9289   10.8193 O   0  0  0  0  0  0
   11.5182    4.7059   10.1559 C   0  0  0  0  0  0
    9.7522    4.2011    4.9957 C   0  0  0  0  0  0
   11.2378    4.4522    4.7672 C   0  0  0  0  0  0
   11.2645    5.3745    3.5512 C   0  0  0  0  0  0
    9.9162    6.1003    3.5411 C   0  0  0  0  0  0
    9.1476    5.5786    4.7523 C   0  0  0  0  0  0
    7.3314    0.0371    4.1922 N   0  0  0  0  0  0
    7.5032    0.3649    2.8341 C   0  0  0  0  0  0
    6.9859   -0.5170    1.8990 C   0  0  0  0  0  0
    7.1462   -0.2065    0.5532 C   0  0  0  0  0  0
    7.8095    0.9600    0.1889 C   0  0  0  0  0  0
    8.2898    1.7759    1.2005 C   0  0  0  0  0  0
    8.1532    1.5075    2.5184 N   0  3  0  0  0  0
    7.9854    1.2998   -1.1572 N   0  3  0  0  0  0
    6.7864    1.4755   -1.9881 C   0  0  0  0  0  0
    7.1351    1.3280   -3.4687 C   0  0  0  0  0  0
    8.2322    2.2165   -3.8495 N   0  0  0  0  0  0
    9.4237    1.9112   -3.0594 C   0  0  0  0  0  0
    9.1602    2.0789   -1.5631 C   0  0  0  0  0  0
    7.8673    1.0911    9.9885 H   0  0  0  0  0  0
    7.7808    2.7133   10.7549 H   0  0  0  0  0  0
    9.3119    1.7754   10.8080 H   0  0  0  0  0  0
    7.4875    0.2175    8.5610 H   0  0  0  0  0  0
   11.7175    5.2535   11.0888 H   0  0  0  0  0  0
   11.9103    5.2795    9.3031 H   0  0  0  0  0  0
   12.0115    3.7235   10.1949 H   0  0  0  0  0  0
    9.3234    3.3973    4.3792 H   0  0  0  0  0  0
   11.6711    4.9263    5.6602 H   0  0  0  0  0  0
   11.7463    3.4956    4.5767 H   0  0  0  0  0  0
   12.0977    6.0860    3.6489 H   0  0  0  0  0  0
   11.3995    4.7748    2.6390 H   0  0  0  0  0  0
   10.0832    7.1851    3.6138 H   0  0  0  0  0  0
    9.3845    5.8731    2.6053 H   0  0  0  0  0  0
    8.0710    5.4761    4.5510 H   0  0  0  0  0  0
    9.2959    6.2068    5.6430 H   0  0  0  0  0  0
    6.7859   -0.9172    4.2338 H   0  0  0  0  0  0
    6.4691   -1.4249    2.1922 H   0  0  0  0  0  0
    6.7514   -0.8795   -0.2031 H   0  0  0  0  0  0
    8.8157    2.6997    0.9786 H   0  0  0  0  0  0
    6.0393    0.7142   -1.7194 H   0  0  0  0  0  0
    6.3661    2.4777   -1.8181 H   0  0  0  0  0  0
    7.4394    0.2907   -3.6721 H   0  0  0  0  0  0
    6.2551    1.5784   -4.0794 H   0  0  0  0  0  0
    8.4618    2.0791   -4.9165 H   0  0  0  0  0  0
    9.7301    0.8712   -3.2450 H   0  0  0  0  0  0
   10.2391    2.5907   -3.3481 H   0  0  0  0  0  0
    8.9861    3.1436   -1.3483 H   0  0  0  0  0  0
   10.0416    1.7314   -1.0042 H   0  0  0  0  0  0
    8.5372    2.1602    3.3162 H   0  0  0  0  0  0
    8.3210    0.2684   -1.3405 H   0  0  0  0  0  0
  1  2  1  0  0  0
  1 34  1  0  0  0
  1 35  1  0  0  0
  1 36  1  0  0  0
  2 12  2  0  0  0
  2  3  1  0  0  0
  3  8  2  0  0  0
  3  4  1  0  0  0
  4  5  2  0  0  0
  4 37  1  0  0  0
  5  6  1  0  0  0
  6  7  2  0  0  0
  6 21  1  0  0  0
  7  8  1  0  0  0
  8  9  1  0  0  0
  9 10  1  0  0  0
  9 16  1  0  0  0
 10 11  2  0  0  0
 10 12  1  0  0  0
 12 13  1  0  0  0
 13 14  2  0  0  0
 13 15  1  0  0  0
 15 38  1  0  0  0
 15 39  1  0  0  0
 15 40  1  0  0  0
 16 20  1  0  0  0
 16 17  1  0  0  0
 16 41  1  0  0  0
 17 18  1  0  0  0
 17 42  1  0  0  0
 17 43  1  0  0  0
 18 19  1  0  0  0
 18 44  1  0  0  0
 18 45  1  0  0  0
 19 20  1  0  0  0
 19 46  1  0  0  0
 19 47  1  0  0  0
 20 48  1  0  0  0
 20 49  1  0  0  0
 21 22  1  0  0  0
 21 50  1  0  0  0
 22 27  2  0  0  0
 22 23  1  0  0  0
 23 24  2  0  0  0
 23 51  1  0  0  0
 24 25  1  0  0  0
 24 52  1  0  0  0
 25 26  2  0  0  0
 25 28  1  0  0  0
 26 27  1  0  0  0
 26 53  1  0  0  0
 27 63  1  0  0  0
 28 33  1  0  0  0
 28 29  1  0  0  0
 28 64  1  0  0  0
 29 30  1  0  0  0
 29 54  1  0  0  0
 29 55  1  0  0  0
 30 31  1  0  0  0
 30 56  1  0  0  0
 30 57  1  0  0  0
 31 32  1  0  0  0
 31 58  1  0  0  0
 32 33  1  0  0  0
 32 59  1  0  0  0
 32 60  1  0  0  0
 33 61  1  0  0  0
 33 62  1  0  0  0
M  CHG  2  27   1  28   1
M  END
> <s_m_source_file>
/Users/andrea/Development/mcce-charges/epik_inhibitors/output/Palbociclib/Palbociclib-input.mol2

> <i_m_source_file_index>
1

> <r_epik_Ionization_Penalty>
  3.9629

> <r_epik_Ionization_Penalty_Charging>
  3.9620

> <r_epik_Ionization_Penalty_Neutral>
  0.0009

> <r_epik_State_Penalty>
  6.1847

> <i_epik_Tot_Q>
2

> <s_epik_Chemistry_Notes>
This compound has an imine and may undergo hydrolysis.

$$$$
6-acetyl-8-cyclopentyl-5-methyl-2-[(5-piperazin-1-yl-2-pyridyl)amino]pyrido[2,3-d]pyrimidin-7-one
                    3D
 Structure written by MMmdl.
 63 67  0  0  1  0            999 V2000
    8.4256    2.0145   10.2019 C   0  0  0  0  0  0
    8.8610    2.6517    8.9024 C   0  0  0  0  0  0
    8.4547    1.9476    7.6649 C   0  0  0  0  0  0
    7.7673    0.7358    7.6490 C   0  0  0  0  0  0
    7.3827    0.0794    6.5338 N   0  0  0  0  0  0
    7.7150    0.6834    5.3870 C   0  0  0  0  0  0
    8.3793    1.8433    5.2587 N   0  0  0  0  0  0
    8.7478    2.4652    6.4091 C   0  0  0  0  0  0
    9.4669    3.6893    6.3241 N   0  0  0  0  0  0
    9.9005    4.3810    7.4473 C   0  0  0  0  0  0
   10.5374    5.4352    7.3967 O   0  0  0  0  0  0
    9.5664    3.7969    8.7913 C   0  0  0  0  0  0
   10.0373    4.5164    9.9933 C   0  0  0  0  0  0
    9.2297    4.9289   10.8193 O   0  0  0  0  0  0
   11.5182    4.7059   10.1559 C   0  0  0  0  0  0
    9.7522    4.2011    4.9957 C   0  0  0  0  0  0
   11.2378    4.4522    4.7672 C   0  0  0  0  0  0
   11.2645    5.3745    3.5512 C   0  0  0  0  0  0
    9.9162    6.1003    3.5411 C   0  0  0  0  0  0
    9.1476    5.5786    4.7523 C   0  0  0  0  0  0
    7.3314    0.0371    4.1922 N   0  0  0  0  0  0
    7.5032    0.3649    2.8341 C   0  0  0  0  0  0
    6.9859   -0.5170    1.8990 C   0  0  0  0  0  0
    7.1462   -0.2065    0.5532 C   0  0  0  0  0  0
    7.8095    0.9600    0.1889 C   0  0  0  0  0  0
    8.2898    1.7759    1.2005 C   0  0  0  0  0  0
    8.1532    1.5075    2.5184 N   0  0  0  0  0  0
    7.9854    1.2998   -1.1572 N   0  3  0  0  0  0
    6.7864    1.4755   -1.9881 C   0  0  0  0  0  0
    7.1351    1.3280   -3.4687 C   0  0  0  0  0  0
    8.2322    2.2165   -3.8495 N   0  0  0  0  0  0
    9.4237    1.9112   -3.0594 C   0  0  0  0  0  0
    9.1602    2.0789   -1.5631 C   0  0  0  0  0  0
    7.8673    1.0911    9.9885 H   0  0  0  0  0  0
    7.7808    2.7133   10.7549 H   0  0  0  0  0  0
    9.3119    1.7754   10.8080 H   0  0  0  0  0  0
    7.4875    0.2175    8.5610 H   0  0  0  0  0  0
   11.7175    5.2535   11.0888 H   0  0  0  0  0  0
   11.9103    5.2795    9.3031 H   0  0  0  0  0  0
   12.0115    3.7235   10.1949 H   0  0  0  0  0  0
    9.3234    3.3973    4.3792 H   0  0  0  0  0  0
   11.6711    4.9263    5.6602 H   0  0  0  0  0  0
   11.7463    3.4956    4.5767 H   0  0  0  0  0  0
   12.0977    6.0860    3.6489 H   0  0  0  0  0  0
   11.3995    4.7748    2.6390 H   0  0  0  0  0  0
   10.0832    7.1851    3.6138 H   0  0  0  0  0  0
    9.3845    5.8731    2.6053 H   0  0  0  0  0  0
    8.0710    5.4761    4.5510 H   0  0  0  0  0  0
    9.2959    6.2068    5.6430 H   0  0  0  0  0  0
    6.7859   -0.9172    4.2338 H   0  0  0  0  0  0
    6.4691   -1.4249    2.1922 H   0  0  0  0  0  0
    6.7514   -0.8795   -0.2031 H   0  0  0  0  0  0
    8.8157    2.6997    0.9786 H   0  0  0  0  0  0
    6.0393    0.7142   -1.7194 H   0  0  0  0  0  0
    6.3661    2.4777   -1.8181 H   0  0  0  0  0  0
    7.4394    0.2907   -3.6721 H   0  0  0  0  0  0
    6.2551    1.5784   -4.0794 H   0  0  0  0  0  0
    8.4618    2.0791   -4.9165 H   0  0  0  0  0  0
    9.7301    0.8712   -3.2450 H   0  0  0  0  0  0
   10.2391    2.5907   -3.3481 H   0  0  0  0  0  0
    8.9861    3.1436   -1.3483 H   0  0  0  0  0  0
   10.0416    1.7314   -1.0042 H   0  0  0  0  0  0
    8.3210    0.2684   -1.3405 H   0  0  0  0  0  0
  1  2  1  0  0  0
  1 34  1  0  0  0
  1 35  1  0  0  0
  1 36  1  0  0  0
  2 12  2  0  0  0
  2  3  1  0  0  0
  3  8  2  0  0  0
  3  4  1  0  0  0
  4  5  2  0  0  0
  4 37  1  0  0  0
  5  6  1  0  0  0
  6  7  2  0  0  0
  6 21  1  0  0  0
  7  8  1  0  0  0
  8  9  1  0  0  0
  9 10  1  0  0  0
  9 16  1  0  0  0
 10 11  2  0  0  0
 10 12  1  0  0  0
 12 13  1  0  0  0
 13 14  2  0  0  0
 13 15  1  0  0  0
 15 38  1  0  0  0
 15 39  1  0  0  0
 15 40  1  0  0  0
 16 20  1  0  0  0
 16 17  1  0  0  0
 16 41  1  0  0  0
 17 18  1  0  0  0
 17 42  1  0  0  0
 17 43  1  0  0  0
 18 19  1  0  0  0
 18 44  1  0  0  0
 18 45  1  0  0  0
 19 20  1  0  0  0
 19 46  1  0  0  0
 19 47  1  0  0  0
 20 48  1  0  0  0
 20 49  1  0  0  0
 21 22  1  0  0  0
 21 50  1  0  0  0
 22 27  2  0  0  0
 22 23  1  0  0  0
 23 24  2  0  0  0
 23 51  1  0  0  0
 24 25  1  0  0  0
 24 52  1  0  0  0
 25 26  2  0  0  0
 25 28  1  0  0  0
 26 27  1  0  0  0
 26 53  1  0  0  0
 28 33  1  0  0  0
 28 29  1  0  0  0
 28 63  1  0  0  0
 29 30  1  0  0  0
 29 54  1  0  0  0
 29 55  1  0  0  0
 30 31  1  0  0  0
 30 56  1  0  0  0
 30 57  1  0  0  0
 31 32  1  0  0  0
 31 58  1  0  0  0
 32 33  1  0  0  0
 32 59  1  0  0  0
 32 60  1  0  0  0
 33 61  1  0  0  0
 33 62  1  0  0  0
M  CHG  1  28   1
M  END
> <s_m_source_file>
/Users/andrea/Development/mcce-charges/epik_inhibitors/output/Palbociclib/Palbociclib-input.mol2

> <i_m_source_file_index>
1

> <r_epik_Ionization_Penalty>
  6.1252

> <r_epik_Ionization_Penalty_Charging>
  5.7036

> <r_epik_Ionization_Penalty_Neutral>
  0.4216

> <r_epik_State_Penalty>
  6.4286

> <i_epik_Tot_Q>
1

> <s_epik_Chemistry_Notes>
This compound has an imine and may undergo hydrolysis.

$$$$
6-acetyl-8-cyclopentyl-5-methyl-2-[(5-piperazin-1-yl-2-pyridyl)amino]pyrido[2,3-d]pyrimidin-7-one
                    3D
 Structure written by MMmdl.
 64 68  0  0  1  0            999 V2000
    8.4256    2.0145   10.2019 C   0  0  0  0  0  0
    8.8610    2.6517    8.9024 C   0  0  0  0  0  0
    8.4547    1.9476    7.6649 C   0  0  0  0  0  0
    7.7673    0.7358    7.6490 C   0  0  0  0  0  0
    7.3827    0.0794    6.5338 N   0  0  0  0  0  0
    7.7150    0.6834    5.3870 C   0  0  0  0  0  0
    8.3793    1.8433    5.2587 N   0  0  0  0  0  0
    8.7478    2.4652    6.4091 C   0  0  0  0  0  0
    9.4669    3.6893    6.3241 N   0  0  0  0  0  0
    9.9005    4.3810    7.4473 C   0  0  0  0  0  0
   10.5374    5.4352    7.3967 O   0  0  0  0  0  0
    9.5664    3.7969    8.7913 C   0  0  0  0  0  0
   10.0373    4.5164    9.9933 C   0  0  0  0  0  0
    9.2293    4.9352   10.8157 O   0  0  0  0  0  0
   11.5182    4.7059   10.1559 C   0  0  0  0  0  0
    9.7522    4.2011    4.9957 C   0  0  0  0  0  0
   11.2378    4.4522    4.7672 C   0  0  0  0  0  0
   11.2645    5.3745    3.5512 C   0  0  0  0  0  0
    9.9162    6.1003    3.5411 C   0  0  0  0  0  0
    9.1476    5.5786    4.7523 C   0  0  0  0  0  0
    7.3314    0.0371    4.1922 N   0  0  0  0  0  0
    7.5032    0.3649    2.8341 C   0  0  0  0  0  0
    6.9859   -0.5170    1.8990 C   0  0  0  0  0  0
    7.1462   -0.2065    0.5532 C   0  0  0  0  0  0
    7.8095    0.9600    0.1889 C   0  0  0  0  0  0
    8.2898    1.7759    1.2005 C   0  0  0  0  0  0
    8.1532    1.5075    2.5184 N   0  3  0  0  0  0
    7.9854    1.2998   -1.1572 N   0  0  0  0  0  0
    6.7864    1.4755   -1.9881 C   0  0  0  0  0  0
    7.1351    1.3280   -3.4687 C   0  0  0  0  0  0
    8.2322    2.2165   -3.8495 N   0  3  0  0  0  0
    9.4237    1.9112   -3.0594 C   0  0  0  0  0  0
    9.1602    2.0789   -1.5631 C   0  0  0  0  0  0
    7.8673    1.0911    9.9885 H   0  0  0  0  0  0
    7.7808    2.7133   10.7549 H   0  0  0  0  0  0
    9.3119    1.7754   10.8080 H   0  0  0  0  0  0
    7.4875    0.2175    8.5610 H   0  0  0  0  0  0
   11.9115    5.2358   11.0359 H   0  0  0  0  0  0
   12.2096    4.3148    9.3950 H   0  0  0  0  0  0
    8.1523    4.7755   10.6592 H   0  0  0  0  0  0
    9.3234    3.3973    4.3792 H   0  0  0  0  0  0
   11.6711    4.9263    5.6602 H   0  0  0  0  0  0
   11.7463    3.4956    4.5767 H   0  0  0  0  0  0
   12.0977    6.0860    3.6489 H   0  0  0  0  0  0
   11.3995    4.7748    2.6390 H   0  0  0  0  0  0
   10.0832    7.1851    3.6138 H   0  0  0  0  0  0
    9.3845    5.8731    2.6053 H   0  0  0  0  0  0
    8.0710    5.4761    4.5510 H   0  0  0  0  0  0
    9.2959    6.2068    5.6430 H   0  0  0  0  0  0
    6.7859   -0.9172    4.2338 H   0  0  0  0  0  0
    6.5091   -1.3546    2.1655 H   0  0  0  0  0  0
    6.7854   -0.8212   -0.1482 H   0  0  0  0  0  0
    8.7714    2.6225    0.9739 H   0  0  0  0  0  0
    6.0393    0.7142   -1.7194 H   0  0  0  0  0  0
    6.3661    2.4777   -1.8181 H   0  0  0  0  0  0
    7.4394    0.2907   -3.6721 H   0  0  0  0  0  0
    6.2551    1.5784   -4.0794 H   0  0  0  0  0  0
    8.4618    2.0791   -4.9165 H   0  0  0  0  0  0
    9.7301    0.8712   -3.2450 H   0  0  0  0  0  0
   10.2391    2.5907   -3.3481 H   0  0  0  0  0  0
    8.9861    3.1436   -1.3483 H   0  0  0  0  0  0
   10.0416    1.7314   -1.0042 H   0  0  0  0  0  0
    7.9376    3.2609   -3.6694 H   0  0  0  0  0  0
    8.5372    2.1602    3.3162 H   0  0  0  0  0  0
  1  2  1  0  0  0
  1 34  1  0  0  0
  1 35  1  0  0  0
  1 36  1  0  0  0
  2 12  2  0  0  0
  2  3  1  0  0  0
  3  8  2  0  0  0
  3  4  1  0  0  0
  4  5  2  0  0  0
  4 37  1  0  0  0
  5  6  1  0  0  0
  6  7  2  0  0  0
  6 21  1  0  0  0
  7  8  1  0  0  0
  8  9  1  0  0  0
  9 10  1  0  0  0
  9 16  1  0  0  0
 10 11  2  0  0  0
 10 12  1  0  0  0
 12 13  1  0  0  0
 13 15  2  0  0  0
 13 14  1  0  0  0
 14 40  1  0  0  0
 15 38  1  0  0  0
 15 39  1  0  0  0
 16 20  1  0  0  0
 16 17  1  0  0  0
 16 41  1  0  0  0
 17 18  1  0  0  0
 17 42  1  0  0  0
 17 43  1  0  0  0
 18 19  1  0  0  0
 18 44  1  0  0  0
 18 45  1  0  0  0
 19 20  1  0  0  0
 19 46  1  0  0  0
 19 47  1  0  0  0
 20 48  1  0  0  0
 20 49  1  0  0  0
 21 22  1  0  0  0
 21 50  1  0  0  0
 22 27  2  0  0  0
 22 23  1  0  0  0
 23 24  2  0  0  0
 23 51  1  0  0  0
 24 25  1  0  0  0
 24 52  1  0  0  0
 25 26  2  0  0  0
 25 28  1  0  0  0
 26 27  1  0  0  0
 26 53  1  0  0  0
 27 64  1  0  0  0
 28 33  1  0  0  0
 28 29  1  0  0  0
 29 30  1  0  0  0
 29 54  1  0  0  0
 29 55  1  0  0  0
 30 31  1  0  0  0
 30 56  1  0  0  0
 30 57  1  0  0  0
 31 32  1  0  0  0
 31 58  1  0  0  0
 31 63  1  0  0  0
 32 33  1  0  0  0
 32 59  1  0  0  0
 32 60  1  0  0  0
 33 61  1  0  0  0
 33 62  1  0  0  0
M  CHG  2  27   1  31   1
M  END
> <s_m_source_file>
/Users/andrea/Development/mcce-charges/epik_inhibitors/output/Palbociclib/Palbociclib-input.mol2

> <i_m_source_file_index>
1

> <r_lp_tautomer_probability>
4.99996926018899e-05

> <r_epik_Ionization_Penalty>
  0.9347

> <r_epik_Ionization_Penalty_Charging>
  0.9091

> <r_epik_Ionization_Penalty_Neutral>
  0.0256

> <r_epik_State_Penalty>
  7.1516

> <i_epik_Tot_Q>
2

> <s_epik_Chemistry_Notes>
This compound has an imine and may undergo hydrolysis.

$$$$
6-acetyl-8-cyclopentyl-5-methyl-2-[(5-piperazin-1-yl-2-pyridyl)amino]pyrido[2,3-d]pyrimidin-7-one
                    3D
 Structure written by MMmdl.
 63 67  0  0  1  0            999 V2000
    4.9750   -4.3687    8.2246 C   0  0  0  0  0  0
    4.8939   -4.3277    6.7159 C   0  0  0  0  0  0
    5.5384   -3.1663    6.0616 C   0  0  0  0  0  0
    6.1398   -2.1177    6.7544 C   0  0  0  0  0  0
    6.7373   -1.0526    6.1789 N   0  0  0  0  0  0
    6.7185   -1.0565    4.8410 C   0  0  0  0  0  0
    6.1704   -1.9953    4.0528 N   0  0  0  0  0  0
    5.5784   -3.0463    4.6779 C   0  0  0  0  0  0
    4.9705   -4.0587    3.8852 N   0  0  0  0  0  0
    4.3257   -5.1561    4.4402 C   0  0  0  0  0  0
    3.7799   -6.0372    3.7729 O   0  0  0  0  0  0
    4.3010   -5.2588    5.9395 C   0  0  0  0  0  0
    3.6031   -6.4143    6.5411 C   0  0  0  0  0  0
    4.2165   -7.1990    7.2571 O   0  0  0  0  0  0
    2.1387   -6.5731    6.2481 C   0  0  0  0  0  0
    5.0348   -3.9014    2.4433 C   0  0  0  0  0  0
    3.6612   -3.9388    1.7844 C   0  0  0  0  0  0
    3.9735   -4.2125    0.3155 C   0  0  0  0  0  0
    5.3257   -4.9307    0.2972 C   0  0  0  0  0  0
    5.7574   -5.0537    1.7562 C   0  0  0  0  0  0
    7.3343    0.0355    4.1922 N   0  0  0  0  0  0
    7.5051    0.3638    2.8341 C   0  0  0  0  0  0
    6.9879   -0.5181    1.8990 C   0  0  0  0  0  0
    7.1448   -0.2057    0.5532 C   0  0  0  0  0  0
    7.8094    0.9601    0.1889 C   0  0  0  0  0  0
    8.2920    1.7746    1.2005 C   0  0  0  0  0  0
    8.1555    1.5062    2.5184 N   0  0  0  0  0  0
    7.9853    1.2998   -1.1572 N   0  0  0  0  0  0
    6.7863    1.4784   -1.9874 C   0  0  0  0  0  0
    7.1339    1.3305   -3.4682 C   0  0  0  0  0  0
    8.2327    2.2167   -3.8494 N   0  3  0  0  0  0
    9.4240    1.9086   -3.0600 C   0  0  0  0  0  0
    9.1616    2.0765   -1.5635 C   0  0  0  0  0  0
    5.5140   -3.4810    8.5871 H   0  0  0  0  0  0
    5.5108   -5.2767    8.5384 H   0  0  0  0  0  0
    3.9590   -4.3784    8.6462 H   0  0  0  0  0  0
    6.1676   -2.0817    7.8391 H   0  0  0  0  0  0
    1.7577   -7.4696    6.7589 H   0  0  0  0  0  0
    1.9913   -6.6787    5.1631 H   0  0  0  0  0  0
    1.5947   -5.6871    6.6075 H   0  0  0  0  0  0
    5.5495   -2.9317    2.3743 H   0  0  0  0  0  0
    3.0582   -4.7387    2.2389 H   0  0  0  0  0  0
    3.1577   -2.9719    1.9310 H   0  0  0  0  0  0
    3.1827   -4.8437   -0.1160 H   0  0  0  0  0  0
    4.0223   -3.2600   -0.2326 H   0  0  0  0  0  0
    5.2086   -5.9210   -0.1671 H   0  0  0  0  0  0
    6.0483   -4.3372   -0.2821 H   0  0  0  0  0  0
    6.8435   -4.9324    1.8818 H   0  0  0  0  0  0
    5.4403   -6.0060    2.2064 H   0  0  0  0  0  0
    8.5639    2.2016    3.2665 H   0  0  0  0  0  0
    6.5122   -1.3564    2.1655 H   0  0  0  0  0  0
    6.7820   -0.8192   -0.1481 H   0  0  0  0  0  0
    8.7755    2.6201    0.9738 H   0  0  0  0  0  0
    6.0377    0.7186   -1.7185 H   0  0  0  0  0  0
    6.3683    2.4815   -1.8169 H   0  0  0  0  0  0
    7.4358    0.2926   -3.6721 H   0  0  0  0  0  0
    6.2541    1.5831   -4.0784 H   0  0  0  0  0  0
    8.4614    2.0792   -4.9165 H   0  0  0  0  0  0
    9.7280    0.8680   -3.2460 H   0  0  0  0  0  0
   10.2407    2.5864   -3.3489 H   0  0  0  0  0  0
    8.9900    3.1415   -1.3483 H   0  0  0  0  0  0
   10.0426    1.7269   -1.0051 H   0  0  0  0  0  0
    7.9405    3.2617   -3.6688 H   0  0  0  0  0  0
  1  2  1  0  0  0
  1 34  1  0  0  0
  1 35  1  0  0  0
  1 36  1  0  0  0
  2 12  2  0  0  0
  2  3  1  0  0  0
  3  8  2  0  0  0
  3  4  1  0  0  0
  4  5  2  0  0  0
  4 37  1  0  0  0
  5  6  1  0  0  0
  6  7  2  0  0  0
  6 21  1  0  0  0
  7  8  1  0  0  0
  8  9  1  0  0  0
  9 10  1  0  0  0
  9 16  1  0  0  0
 10 11  2  0  0  0
 10 12  1  0  0  0
 12 13  1  0  0  0
 13 14  2  0  0  0
 13 15  1  0  0  0
 15 38  1  0  0  0
 15 39  1  0  0  0
 15 40  1  0  0  0
 16 20  1  0  0  0
 16 17  1  0  0  0
 16 41  1  0  0  0
 17 18  1  0  0  0
 17 42  1  0  0  0
 17 43  1  0  0  0
 18 19  1  0  0  0
 18 44  1  0  0  0
 18 45  1  0  0  0
 19 20  1  0  0  0
 19 46  1  0  0  0
 19 47  1  0  0  0
 20 48  1  0  0  0
 20 49  1  0  0  0
 21 22  2  0  0  0
 22 23  1  0  0  0
 22 27  1  0  0  0
 23 24  2  0  0  0
 23 51  1  0  0  0
 24 25  1  0  0  0
 24 52  1  0  0  0
 25 26  2  0  0  0
 25 28  1  0  0  0
 26 27  1  0  0  0
 26 53  1  0  0  0
 27 50  1  0  0  0
 28 33  1  0  0  0
 28 29  1  0  0  0
 29 30  1  0  0  0
 29 54  1  0  0  0
 29 55  1  0  0  0
 30 31  1  0  0  0
 30 56  1  0  0  0
 30 57  1  0  0  0
 31 32  1  0  0  0
 31 58  1  0  0  0
 31 63  1  0  0  0
 32 33  1  0  0  0
 32 59  1  0  0  0
 32 60  1  0  0  0
 33 61  1  0  0  0
 33 62  1  0  0  0
M  CHG  1  31   1
M  END
> <s_m_source_file>
/Users/andrea/Development/mcce-charges/epik_inhibitors/output/Palbociclib/Palbociclib-input.mol2

> <i_m_source_file_index>
1

> <r_lp_tautomer_probability>
4.85973406205523e-06

> <r_epik_Ionization_Penalty>
  4.5666

> <r_epik_Ionization_Penalty_Charging>
  4.5666

> <r_epik_Ionization_Penalty_Neutral>
  0.0000

> <r_epik_State_Penalty>
  7.5048

> <i_epik_Tot_Q>
1

$$$$
6-acetyl-8-cyclopentyl-5-methyl-2-[(5-piperazin-1-yl-2-pyridyl)amino]pyrido[2,3-d]pyrimidin-7-one
                    3D
 Structure written by MMmdl.
 63 67  0  0  1  0            999 V2000
    8.4304    2.0117   10.2019 C   0  0  0  0  0  0
    8.8647    2.6496    8.9024 C   0  0  0  0  0  0
    8.4582    1.9456    7.6649 C   0  0  0  0  0  0
    7.7716    0.7333    7.6489 C   0  0  0  0  0  0
    7.3868    0.0770    6.5337 N   0  0  0  0  0  0
    7.7181    0.6816    5.3870 C   0  0  0  0  0  0
    8.3815    1.8420    5.2587 N   0  0  0  0  0  0
    8.7502    2.4638    6.4091 C   0  0  0  0  0  0
    9.4684    3.6884    6.3241 N   0  0  0  0  0  0
    9.9022    4.3801    7.4473 C   0  0  0  0  0  0
   10.5383    5.4347    7.3966 O   0  0  0  0  0  0
    9.5692    3.7953    8.7913 C   0  0  0  0  0  0
   10.0403    4.5147    9.9932 C   0  0  0  0  0  0
    9.2329    4.9264   10.8198 O   0  0  0  0  0  0
   11.5212    4.7052   10.1551 C   0  0  0  0  0  0
    9.7526    4.2009    4.9957 C   0  0  0  0  0  0
   11.2379    4.4531    4.7664 C   0  0  0  0  0  0
   11.2633    5.3758    3.5507 C   0  0  0  0  0  0
    9.9145    6.1007    3.5416 C   0  0  0  0  0  0
    9.1470    5.5780    4.7531 C   0  0  0  0  0  0
    7.3343    0.0355    4.1922 N   0  0  0  0  0  0
    7.5051    0.3638    2.8341 C   0  0  0  0  0  0
    6.9879   -0.5181    1.8990 C   0  0  0  0  0  0
    7.1448   -0.2057    0.5532 C   0  0  0  0  0  0
    7.8094    0.9601    0.1889 C   0  0  0  0  0  0
    8.2920    1.7746    1.2005 C   0  0  0  0  0  0
    8.1555    1.5062    2.5184 N   0  0  0  0  0  0
    7.9853    1.2998   -1.1572 N   0  0  0  0  0  0
    6.7863    1.4784   -1.9874 C   0  0  0  0  0  0
    7.1339    1.3305   -3.4682 C   0  0  0  0  0  0
    8.2327    2.2167   -3.8494 N   0  3  0  0  0  0
    9.4240    1.9086   -3.0600 C   0  0  0  0  0  0
    9.1616    2.0765   -1.5635 C   0  0  0  0  0  0
    7.8726    1.0879    9.9885 H   0  0  0  0  0  0
    7.7854    2.7099   10.7555 H   0  0  0  0  0  0
    9.3172    1.7730   10.8075 H   0  0  0  0  0  0
    7.4927    0.2145    8.5609 H   0  0  0  0  0  0
   11.7206    5.2527   11.0881 H   0  0  0  0  0  0
   11.9123    5.2793    9.3022 H   0  0  0  0  0  0
   12.0151    3.7231   10.1934 H   0  0  0  0  0  0
    9.3241    3.3970    4.3792 H   0  0  0  0  0  0
   11.6714    4.9272    5.6594 H   0  0  0  0  0  0
   11.7470    3.4969    4.5753 H   0  0  0  0  0  0
   12.0961    6.0878    3.6482 H   0  0  0  0  0  0
   11.3982    4.7764    2.6383 H   0  0  0  0  0  0
   10.0808    7.1856    3.6146 H   0  0  0  0  0  0
    9.3824    5.8734    2.6061 H   0  0  0  0  0  0
    8.0703    5.4749    4.5524 H   0  0  0  0  0  0
    9.2953    6.2060    5.6439 H   0  0  0  0  0  0
    8.5639    2.2016    3.2665 H   0  0  0  0  0  0
    6.5122   -1.3564    2.1655 H   0  0  0  0  0  0
    6.7820   -0.8192   -0.1481 H   0  0  0  0  0  0
    8.7755    2.6201    0.9738 H   0  0  0  0  0  0
    6.0377    0.7186   -1.7185 H   0  0  0  0  0  0
    6.3683    2.4815   -1.8169 H   0  0  0  0  0  0
    7.4358    0.2926   -3.6721 H   0  0  0  0  0  0
    6.2541    1.5831   -4.0784 H   0  0  0  0  0  0
    8.4614    2.0792   -4.9165 H   0  0  0  0  0  0
    9.7280    0.8680   -3.2460 H   0  0  0  0  0  0
   10.2407    2.5864   -3.3489 H   0  0  0  0  0  0
    8.9900    3.1415   -1.3483 H   0  0  0  0  0  0
   10.0426    1.7269   -1.0051 H   0  0  0  0  0  0
    7.9405    3.2617   -3.6688 H   0  0  0  0  0  0
  1  2  1  0  0  0
  1 34  1  0  0  0
  1 35  1  0  0  0
  1 36  1  0  0  0
  2 12  2  0  0  0
  2  3  1  0  0  0
  3  8  2  0  0  0
  3  4  1  0  0  0
  4  5  2  0  0  0
  4 37  1  0  0  0
  5  6  1  0  0  0
  6  7  2  0  0  0
  6 21  1  0  0  0
  7  8  1  0  0  0
  8  9  1  0  0  0
  9 10  1  0  0  0
  9 16  1  0  0  0
 10 11  2  0  0  0
 10 12  1  0  0  0
 12 13  1  0  0  0
 13 14  2  0  0  0
 13 15  1  0  0  0
 15 38  1  0  0  0
 15 39  1  0  0  0
 15 40  1  0  0  0
 16 20  1  0  0  0
 16 17  1  0  0  0
 16 41  1  0  0  0
 17 18  1  0  0  0
 17 42  1  0  0  0
 17 43  1  0  0  0
 18 19  1  0  0  0
 18 44  1  0  0  0
 18 45  1  0  0  0
 19 20  1  0  0  0
 19 46  1  0  0  0
 19 47  1  0  0  0
 20 48  1  0  0  0
 20 49  1  0  0  0
 21 22  2  0  0  0
 22 23  1  0  0  0
 22 27  1  0  0  0
 23 24  2  0  0  0
 23 51  1  0  0  0
 24 25  1  0  0  0
 24 52  1  0  0  0
 25 26  2  0  0  0
 25 28  1  0  0  0
 26 27  1  0  0  0
 26 53  1  0  0  0
 27 50  1  0  0  0
 28 33  1  0  0  0
 28 29  1  0  0  0
 29 30  1  0  0  0
 29 54  1  0  0  0
 29 55  1  0  0  0
 30 31  1  0  0  0
 30 56  1  0  0  0
 30 57  1  0  0  0
 31 32  1  0  0  0
 31 58  1  0  0  0
 31 63  1  0  0  0
 32 33  1  0  0  0
 32 59  1  0  0  0
 32 60  1  0  0  0
 33 61  1  0  0  0
 33 62  1  0  0  0
M  CHG  1  31   1
M  END
> <s_m_source_file>
/Users/andrea/Development/mcce-charges/epik_inhibitors/output/Palbociclib/Palbociclib-input.mol2

> <i_m_source_file_index>
1

> <r_lp_tautomer_probability>
4.85973406205523e-06

> <r_epik_Ionization_Penalty>
  4.5666

> <r_epik_Ionization_Penalty_Charging>
  4.5666

> <r_epik_Ionization_Penalty_Neutral>
  0.0000

> <r_epik_State_Penalty>
  7.5048

> <i_epik_Tot_Q>
1

$$$$
6-acetyl-8-cyclopentyl-5-methyl-2-[(5-piperazin-1-yl-2-pyridyl)amino]pyrido[2,3-d]pyrimidin-7-one
                    3D
 Structure written by MMmdl.
 63 67  0  0  1  0            999 V2000
    8.4256    2.0145   10.2019 C   0  0  0  0  0  0
    8.8610    2.6517    8.9024 C   0  0  0  0  0  0
    8.4547    1.9476    7.6649 C   0  0  0  0  0  0
    7.7673    0.7358    7.6490 C   0  0  0  0  0  0
    7.3827    0.0794    6.5338 N   0  0  0  0  0  0
    7.7150    0.6834    5.3870 C   0  0  0  0  0  0
    8.3793    1.8433    5.2587 N   0  0  0  0  0  0
    8.7478    2.4652    6.4091 C   0  0  0  0  0  0
    9.4669    3.6893    6.3241 N   0  0  0  0  0  0
    9.9005    4.3810    7.4473 C   0  0  0  0  0  0
   10.5374    5.4352    7.3967 O   0  0  0  0  0  0
    9.5664    3.7969    8.7913 C   0  0  0  0  0  0
   10.0373    4.5164    9.9933 C   0  0  0  0  0  0
    9.2293    4.9352   10.8157 O   0  0  0  0  0  0
   11.5182    4.7059   10.1559 C   0  0  0  0  0  0
    9.7522    4.2011    4.9957 C   0  0  0  0  0  0
   11.2378    4.4522    4.7672 C   0  0  0  0  0  0
   11.2645    5.3745    3.5512 C   0  0  0  0  0  0
    9.9162    6.1003    3.5411 C   0  0  0  0  0  0
    9.1476    5.5786    4.7523 C   0  0  0  0  0  0
    7.3314    0.0371    4.1922 N   0  0  0  0  0  0
    7.5032    0.3649    2.8341 C   0  0  0  0  0  0
    6.9859   -0.5170    1.8990 C   0  0  0  0  0  0
    7.1462   -0.2065    0.5532 C   0  0  0  0  0  0
    7.8095    0.9600    0.1889 C   0  0  0  0  0  0
    8.2898    1.7759    1.2005 C   0  0  0  0  0  0
    8.1532    1.5075    2.5184 N   0  3  0  0  0  0
    7.9854    1.2998   -1.1572 N   0  0  0  0  0  0
    6.7864    1.4755   -1.9881 C   0  0  0  0  0  0
    7.1351    1.3280   -3.4687 C   0  0  0  0  0  0
    8.2322    2.2165   -3.8495 N   0  0  0  0  0  0
    9.4237    1.9112   -3.0594 C   0  0  0  0  0  0
    9.1602    2.0789   -1.5631 C   0  0  0  0  0  0
    7.8673    1.0911    9.9885 H   0  0  0  0  0  0
    7.7808    2.7133   10.7549 H   0  0  0  0  0  0
    9.3119    1.7754   10.8080 H   0  0  0  0  0  0
    7.4875    0.2175    8.5610 H   0  0  0  0  0  0
   11.9115    5.2358   11.0359 H   0  0  0  0  0  0
   12.2096    4.3148    9.3950 H   0  0  0  0  0  0
    8.1523    4.7755   10.6592 H   0  0  0  0  0  0
    9.3234    3.3973    4.3792 H   0  0  0  0  0  0
   11.6711    4.9263    5.6602 H   0  0  0  0  0  0
   11.7463    3.4956    4.5767 H   0  0  0  0  0  0
   12.0977    6.0860    3.6489 H   0  0  0  0  0  0
   11.3995    4.7748    2.6390 H   0  0  0  0  0  0
   10.0832    7.1851    3.6138 H   0  0  0  0  0  0
    9.3845    5.8731    2.6053 H   0  0  0  0  0  0
    8.0710    5.4761    4.5510 H   0  0  0  0  0  0
    9.2959    6.2068    5.6430 H   0  0  0  0  0  0
    6.7859   -0.9172    4.2338 H   0  0  0  0  0  0
    6.5091   -1.3546    2.1655 H   0  0  0  0  0  0
    6.7854   -0.8212   -0.1482 H   0  0  0  0  0  0
    8.7714    2.6225    0.9739 H   0  0  0  0  0  0
    6.0393    0.7142   -1.7194 H   0  0  0  0  0  0
    6.3661    2.4777   -1.8181 H   0  0  0  0  0  0
    7.4394    0.2907   -3.6721 H   0  0  0  0  0  0
    6.2551    1.5784   -4.0794 H   0  0  0  0  0  0
    8.4618    2.0791   -4.9165 H   0  0  0  0  0  0
    9.7301    0.8712   -3.2450 H   0  0  0  0  0  0
   10.2391    2.5907   -3.3481 H   0  0  0  0  0  0
    8.9861    3.1436   -1.3483 H   0  0  0  0  0  0
   10.0416    1.7314   -1.0042 H   0  0  0  0  0  0
    8.5372    2.1602    3.3162 H   0  0  0  0  0  0
  1  2  1  0  0  0
  1 34  1  0  0  0
  1 35  1  0  0  0
  1 36  1  0  0  0
  2 12  2  0  0  0
  2  3  1  0  0  0
  3  8  2  0  0  0
  3  4  1  0  0  0
  4  5  2  0  0  0
  4 37  1  0  0  0
  5  6  1  0  0  0
  6  7  2  0  0  0
  6 21  1  0  0  0
  7  8  1  0  0  0
  8  9  1  0  0  0
  9 10  1  0  0  0
  9 16  1  0  0  0
 10 11  2  0  0  0
 10 12  1  0  0  0
 12 13  1  0  0  0
 13 15  2  0  0  0
 13 14  1  0  0  0
 14 40  1  0  0  0
 15 38  1  0  0  0
 15 39  1  0  0  0
 16 20  1  0  0  0
 16 17  1  0  0  0
 16 41  1  0  0  0
 17 18  1  0  0  0
 17 42  1  0  0  0
 17 43  1  0  0  0
 18 19  1  0  0  0
 18 44  1  0  0  0
 18 45  1  0  0  0
 19 20  1  0  0  0
 19 46  1  0  0  0
 19 47  1  0  0  0
 20 48  1  0  0  0
 20 49  1  0  0  0
 21 22  1  0  0  0
 21 50  1  0  0  0
 22 27  2  0  0  0
 22 23  1  0  0  0
 23 24  2  0  0  0
 23 51  1  0  0  0
 24 25  1  0  0  0
 24 52  1  0  0  0
 25 26  2  0  0  0
 25 28  1  0  0  0
 26 27  1  0  0  0
 26 53  1  0  0  0
 27 63  1  0  0  0
 28 33  1  0  0  0
 28 29  1  0  0  0
 29 30  1  0  0  0
 29 54  1  0  0  0
 29 55  1  0  0  0
 30 31  1  0  0  0
 30 56  1  0  0  0
 30 57  1  0  0  0
 31 32  1  0  0  0
 31 58  1  0  0  0
 32 33  1  0  0  0
 32 59  1  0  0  0
 32 60  1  0  0  0
 33 61  1  0  0  0
 33 62  1  0  0  0
M  CHG  1  27   1
M  END
> <s_m_source_file>
/Users/andrea/Development/mcce-charges/epik_inhibitors/output/Palbociclib/Palbociclib-input.mol2

> <i_m_source_file_index>
1

> <r_epik_Ionization_Penalty>
  1.2606

> <r_epik_Ionization_Penalty_Charging>
  0.1224

> <r_epik_Ionization_Penalty_Neutral>
  1.1382

> <r_epik_State_Penalty>
  7.5312

> <i_epik_Tot_Q>
1

> <s_epik_Chemistry_Notes>
This compound has an imine and may undergo hydrolysis.

$$$$
6-acetyl-8-cyclopentyl-5-methyl-2-[(5-piperazin-1-yl-2-pyridyl)amino]pyrido[2,3-d]pyrimidin-7-one
                    3D
 Structure written by MMmdl.
 62 66  0  0  1  0            999 V2000
    8.4256    2.0145   10.2019 C   0  0  0  0  0  0
    8.8610    2.6517    8.9024 C   0  0  0  0  0  0
    8.4547    1.9476    7.6649 C   0  0  0  0  0  0
    7.7673    0.7358    7.6490 C   0  0  0  0  0  0
    7.3827    0.0794    6.5338 N   0  0  0  0  0  0
    7.7150    0.6834    5.3870 C   0  0  0  0  0  0
    8.3793    1.8433    5.2587 N   0  0  0  0  0  0
    8.7478    2.4652    6.4091 C   0  0  0  0  0  0
    9.4669    3.6893    6.3241 N   0  0  0  0  0  0
    9.9005    4.3810    7.4473 C   0  0  0  0  0  0
   10.5374    5.4352    7.3967 O   0  0  0  0  0  0
    9.5664    3.7969    8.7913 C   0  0  0  0  0  0
   10.0373    4.5164    9.9933 C   0  0  0  0  0  0
    9.2293    4.9352   10.8157 O   0  0  0  0  0  0
   11.5182    4.7059   10.1559 C   0  0  0  0  0  0
    9.7522    4.2011    4.9957 C   0  0  0  0  0  0
   11.2378    4.4522    4.7672 C   0  0  0  0  0  0
   11.2645    5.3745    3.5512 C   0  0  0  0  0  0
    9.9162    6.1003    3.5411 C   0  0  0  0  0  0
    9.1476    5.5786    4.7523 C   0  0  0  0  0  0
    7.3314    0.0371    4.1922 N   0  0  0  0  0  0
    7.5032    0.3649    2.8341 C   0  0  0  0  0  0
    6.9859   -0.5170    1.8990 C   0  0  0  0  0  0
    7.1462   -0.2065    0.5532 C   0  0  0  0  0  0
    7.8095    0.9600    0.1889 C   0  0  0  0  0  0
    8.2898    1.7759    1.2005 C   0  0  0  0  0  0
    8.1532    1.5075    2.5184 N   0  0  0  0  0  0
    7.9854    1.2998   -1.1572 N   0  0  0  0  0  0
    6.7864    1.4755   -1.9881 C   0  0  0  0  0  0
    7.1351    1.3280   -3.4687 C   0  0  0  0  0  0
    8.2322    2.2165   -3.8495 N   0  0  0  0  0  0
    9.4237    1.9112   -3.0594 C   0  0  0  0  0  0
    9.1602    2.0789   -1.5631 C   0  0  0  0  0  0
    7.8673    1.0911    9.9885 H   0  0  0  0  0  0
    7.7808    2.7133   10.7549 H   0  0  0  0  0  0
    9.3119    1.7754   10.8080 H   0  0  0  0  0  0
    7.4875    0.2175    8.5610 H   0  0  0  0  0  0
   11.9115    5.2358   11.0359 H   0  0  0  0  0  0
   12.2096    4.3148    9.3950 H   0  0  0  0  0  0
    8.1523    4.7755   10.6592 H   0  0  0  0  0  0
    9.3234    3.3973    4.3792 H   0  0  0  0  0  0
   11.6711    4.9263    5.6602 H   0  0  0  0  0  0
   11.7463    3.4956    4.5767 H   0  0  0  0  0  0
   12.0977    6.0860    3.6489 H   0  0  0  0  0  0
   11.3995    4.7748    2.6390 H   0  0  0  0  0  0
   10.0832    7.1851    3.6138 H   0  0  0  0  0  0
    9.3845    5.8731    2.6053 H   0  0  0  0  0  0
    8.0710    5.4761    4.5510 H   0  0  0  0  0  0
    9.2959    6.2068    5.6430 H   0  0  0  0  0  0
    6.7859   -0.9172    4.2338 H   0  0  0  0  0  0
    6.5091   -1.3546    2.1655 H   0  0  0  0  0  0
    6.7854   -0.8212   -0.1482 H   0  0  0  0  0  0
    8.7714    2.6225    0.9739 H   0  0  0  0  0  0
    6.0393    0.7142   -1.7194 H   0  0  0  0  0  0
    6.3661    2.4777   -1.8181 H   0  0  0  0  0  0
    7.4394    0.2907   -3.6721 H   0  0  0  0  0  0
    6.2551    1.5784   -4.0794 H   0  0  0  0  0  0
    8.4618    2.0791   -4.9165 H   0  0  0  0  0  0
    9.7301    0.8712   -3.2450 H   0  0  0  0  0  0
   10.2391    2.5907   -3.3481 H   0  0  0  0  0  0
    8.9861    3.1436   -1.3483 H   0  0  0  0  0  0
   10.0416    1.7314   -1.0042 H   0  0  0  0  0  0
  1  2  1  0  0  0
  1 34  1  0  0  0
  1 35  1  0  0  0
  1 36  1  0  0  0
  2 12  2  0  0  0
  2  3  1  0  0  0
  3  8  2  0  0  0
  3  4  1  0  0  0
  4  5  2  0  0  0
  4 37  1  0  0  0
  5  6  1  0  0  0
  6  7  2  0  0  0
  6 21  1  0  0  0
  7  8  1  0  0  0
  8  9  1  0  0  0
  9 10  1  0  0  0
  9 16  1  0  0  0
 10 11  2  0  0  0
 10 12  1  0  0  0
 12 13  1  0  0  0
 13 15  2  0  0  0
 13 14  1  0  0  0
 14 40  1  0  0  0
 15 38  1  0  0  0
 15 39  1  0  0  0
 16 20  1  0  0  0
 16 17  1  0  0  0
 16 41  1  0  0  0
 17 18  1  0  0  0
 17 42  1  0  0  0
 17 43  1  0  0  0
 18 19  1  0  0  0
 18 44  1  0  0  0
 18 45  1  0  0  0
 19 20  1  0  0  0
 19 46  1  0  0  0
 19 47  1  0  0  0
 20 48  1  0  0  0
 20 49  1  0  0  0
 21 22  1  0  0  0
 21 50  1  0  0  0
 22 27  2  0  0  0
 22 23  1  0  0  0
 23 24  2  0  0  0
 23 51  1  0  0  0
 24 25  1  0  0  0
 24 52  1  0  0  0
 25 26  2  0  0  0
 25 28  1  0  0  0
 26 27  1  0  0  0
 26 53  1  0  0  0
 28 33  1  0  0  0
 28 29  1  0  0  0
 29 30  1  0  0  0
 29 54  1  0  0  0
 29 55  1  0  0  0
 30 31  1  0  0  0
 30 56  1  0  0  0
 30 57  1  0  0  0
 31 32  1  0  0  0
 31 58  1  0  0  0
 32 33  1  0  0  0
 32 59  1  0  0  0
 32 60  1  0  0  0
 33 61  1  0  0  0
 33 62  1  0  0  0
M  END
> <s_m_source_file>
/Users/andrea/Development/mcce-charges/epik_inhibitors/output/Palbociclib/Palbociclib-input.mol2

> <i_m_source_file_index>
1

> <r_lp_tautomer_probability>
4.99995140022939e-05

> <r_epik_Ionization_Penalty>
  2.9241

> <r_epik_Ionization_Penalty_Charging>
  0.0000

> <r_epik_Ionization_Penalty_Neutral>
  2.9241

> <r_epik_State_Penalty>
  7.6242

> <i_epik_Tot_Q>
0

> <s_epik_Chemistry_Notes>
This compound has an imine and may undergo hydrolysis.

$$$$
6-acetyl-8-cyclopentyl-5-methyl-2-[(5-piperazin-1-yl-2-pyridyl)amino]pyrido[2,3-d]pyrimidin-7-one
                    3D
 Structure written by MMmdl.
 62 66  0  0  1  0            999 V2000
    8.4256    2.0145   10.2019 C   0  0  0  0  0  0
    8.8610    2.6517    8.9024 C   0  0  0  0  0  0
    8.4547    1.9476    7.6649 C   0  0  0  0  0  0
    7.7673    0.7358    7.6490 C   0  0  0  0  0  0
    7.3827    0.0794    6.5338 N   0  0  0  0  0  0
    7.7150    0.6834    5.3870 C   0  0  0  0  0  0
    8.3793    1.8433    5.2587 N   0  0  0  0  0  0
    8.7478    2.4652    6.4091 C   0  0  0  0  0  0
    9.4669    3.6893    6.3241 N   0  0  0  0  0  0
    9.9005    4.3810    7.4473 C   0  0  0  0  0  0
   10.5374    5.4352    7.3967 O   0  0  0  0  0  0
    9.5664    3.7969    8.7913 C   0  0  0  0  0  0
   10.0373    4.5164    9.9933 C   0  0  0  0  0  0
    9.2293    4.9352   10.8157 O   0  5  0  0  0  0
   11.5182    4.7059   10.1559 C   0  0  0  0  0  0
    9.7522    4.2011    4.9957 C   0  0  0  0  0  0
   11.2378    4.4522    4.7672 C   0  0  0  0  0  0
   11.2645    5.3745    3.5512 C   0  0  0  0  0  0
    9.9162    6.1003    3.5411 C   0  0  0  0  0  0
    9.1476    5.5786    4.7523 C   0  0  0  0  0  0
    7.3314    0.0371    4.1922 N   0  0  0  0  0  0
    7.5032    0.3649    2.8341 C   0  0  0  0  0  0
    6.9859   -0.5170    1.8990 C   0  0  0  0  0  0
    7.1462   -0.2065    0.5532 C   0  0  0  0  0  0
    7.8095    0.9600    0.1889 C   0  0  0  0  0  0
    8.2898    1.7759    1.2005 C   0  0  0  0  0  0
    8.1532    1.5075    2.5184 N   0  0  0  0  0  0
    7.9854    1.2998   -1.1572 N   0  0  0  0  0  0
    6.7864    1.4755   -1.9881 C   0  0  0  0  0  0
    7.1351    1.3280   -3.4687 C   0  0  0  0  0  0
    8.2322    2.2165   -3.8495 N   0  3  0  0  0  0
    9.4237    1.9112   -3.0594 C   0  0  0  0  0  0
    9.1602    2.0789   -1.5631 C   0  0  0  0  0  0
    7.8673    1.0911    9.9885 H   0  0  0  0  0  0
    7.7808    2.7133   10.7549 H   0  0  0  0  0  0
    9.3119    1.7754   10.8080 H   0  0  0  0  0  0
    7.4875    0.2175    8.5610 H   0  0  0  0  0  0
   11.9115    5.2358   11.0359 H   0  0  0  0  0  0
   12.2096    4.3148    9.3950 H   0  0  0  0  0  0
    9.3234    3.3973    4.3792 H   0  0  0  0  0  0
   11.6711    4.9263    5.6602 H   0  0  0  0  0  0
   11.7463    3.4956    4.5767 H   0  0  0  0  0  0
   12.0977    6.0860    3.6489 H   0  0  0  0  0  0
   11.3995    4.7748    2.6390 H   0  0  0  0  0  0
   10.0832    7.1851    3.6138 H   0  0  0  0  0  0
    9.3845    5.8731    2.6053 H   0  0  0  0  0  0
    8.0710    5.4761    4.5510 H   0  0  0  0  0  0
    9.2959    6.2068    5.6430 H   0  0  0  0  0  0
    6.7859   -0.9172    4.2338 H   0  0  0  0  0  0
    6.5091   -1.3546    2.1655 H   0  0  0  0  0  0
    6.7854   -0.8212   -0.1482 H   0  0  0  0  0  0
    8.7714    2.6225    0.9739 H   0  0  0  0  0  0
    6.0393    0.7142   -1.7194 H   0  0  0  0  0  0
    6.3661    2.4777   -1.8181 H   0  0  0  0  0  0
    7.4394    0.2907   -3.6721 H   0  0  0  0  0  0
    6.2551    1.5784   -4.0794 H   0  0  0  0  0  0
    8.4618    2.0791   -4.9165 H   0  0  0  0  0  0
    9.7301    0.8712   -3.2450 H   0  0  0  0  0  0
   10.2391    2.5907   -3.3481 H   0  0  0  0  0  0
    8.9861    3.1436   -1.3483 H   0  0  0  0  0  0
   10.0416    1.7314   -1.0042 H   0  0  0  0  0  0
    7.9376    3.2609   -3.6694 H   0  0  0  0  0  0
  1  2  1  0  0  0
  1 34  1  0  0  0
  1 35  1  0  0  0
  1 36  1  0  0  0
  2 12  2  0  0  0
  2  3  1  0  0  0
  3  8  2  0  0  0
  3  4  1  0  0  0
  4  5  2  0  0  0
  4 37  1  0  0  0
  5  6  1  0  0  0
  6  7  2  0  0  0
  6 21  1  0  0  0
  7  8  1  0  0  0
  8  9  1  0  0  0
  9 10  1  0  0  0
  9 16  1  0  0  0
 10 11  2  0  0  0
 10 12  1  0  0  0
 12 13  1  0  0  0
 13 15  2  0  0  0
 13 14  1  0  0  0
 15 38  1  0  0  0
 15 39  1  0  0  0
 16 20  1  0  0  0
 16 17  1  0  0  0
 16 40  1  0  0  0
 17 18  1  0  0  0
 17 41  1  0  0  0
 17 42  1  0  0  0
 18 19  1  0  0  0
 18 43  1  0  0  0
 18 44  1  0  0  0
 19 20  1  0  0  0
 19 45  1  0  0  0
 19 46  1  0  0  0
 20 47  1  0  0  0
 20 48  1  0  0  0
 21 22  1  0  0  0
 21 49  1  0  0  0
 22 27  2  0  0  0
 22 23  1  0  0  0
 23 24  2  0  0  0
 23 50  1  0  0  0
 24 25  1  0  0  0
 24 51  1  0  0  0
 25 26  2  0  0  0
 25 28  1  0  0  0
 26 27  1  0  0  0
 26 52  1  0  0  0
 28 33  1  0  0  0
 28 29  1  0  0  0
 29 30  1  0  0  0
 29 53  1  0  0  0
 29 54  1  0  0  0
 30 31  1  0  0  0
 30 55  1  0  0  0
 30 56  1  0  0  0
 31 32  1  0  0  0
 31 57  1  0  0  0
 31 62  1  0  0  0
 32 33  1  0  0  0
 32 58  1  0  0  0
 32 59  1  0  0  0
 33 60  1  0  0  0
 33 61  1  0  0  0
M  CHG  2  14  -1  31   1
M  END
> <s_m_source_file>
/Users/andrea/Development/mcce-charges/epik_inhibitors/output/Palbociclib/Palbociclib-input.mol2

> <i_m_source_file_index>
1

> <r_epik_Ionization_Penalty>
  0.1984

> <r_epik_Ionization_Penalty_Charging>
  0.0243

> <r_epik_Ionization_Penalty_Neutral>
  0.1740

> <r_epik_State_Penalty>
  8.1342

> <i_epik_Tot_Q>
0

> <s_epik_Chemistry_Notes>
This compound has an imine and may undergo hydrolysis.

$$$$
6-acetyl-8-cyclopentyl-5-methyl-2-[(5-piperazin-1-yl-2-pyridyl)amino]pyrido[2,3-d]pyrimidin-7-one
                    3D
 Structure written by MMmdl.
 62 66  0  0  1  0            999 V2000
    4.9750   -4.3687    8.2246 C   0  0  0  0  0  0
    4.8939   -4.3277    6.7159 C   0  0  0  0  0  0
    5.5384   -3.1663    6.0616 C   0  0  0  0  0  0
    6.1398   -2.1177    6.7544 C   0  0  0  0  0  0
    6.7373   -1.0526    6.1789 N   0  0  0  0  0  0
    6.7185   -1.0565    4.8410 C   0  0  0  0  0  0
    6.1704   -1.9953    4.0528 N   0  0  0  0  0  0
    5.5784   -3.0463    4.6779 C   0  0  0  0  0  0
    4.9705   -4.0587    3.8852 N   0  0  0  0  0  0
    4.3257   -5.1561    4.4402 C   0  0  0  0  0  0
    3.7799   -6.0372    3.7729 O   0  0  0  0  0  0
    4.3010   -5.2588    5.9395 C   0  0  0  0  0  0
    3.6031   -6.4143    6.5411 C   0  0  0  0  0  0
    4.2165   -7.1990    7.2571 O   0  0  0  0  0  0
    2.1387   -6.5731    6.2481 C   0  0  0  0  0  0
    5.0348   -3.9014    2.4433 C   0  0  0  0  0  0
    3.6612   -3.9388    1.7844 C   0  0  0  0  0  0
    3.9735   -4.2125    0.3155 C   0  0  0  0  0  0
    5.3257   -4.9307    0.2972 C   0  0  0  0  0  0
    5.7574   -5.0537    1.7562 C   0  0  0  0  0  0
    7.3343    0.0355    4.1922 N   0  0  0  0  0  0
    7.5051    0.3638    2.8341 C   0  0  0  0  0  0
    6.9879   -0.5181    1.8990 C   0  0  0  0  0  0
    7.1448   -0.2057    0.5532 C   0  0  0  0  0  0
    7.8094    0.9601    0.1889 C   0  0  0  0  0  0
    8.2920    1.7746    1.2005 C   0  0  0  0  0  0
    8.1555    1.5062    2.5184 N   0  0  0  0  0  0
    7.9853    1.2998   -1.1572 N   0  0  0  0  0  0
    6.7863    1.4784   -1.9874 C   0  0  0  0  0  0
    7.1339    1.3305   -3.4682 C   0  0  0  0  0  0
    8.2327    2.2167   -3.8494 N   0  0  0  0  0  0
    9.4240    1.9086   -3.0600 C   0  0  0  0  0  0
    9.1616    2.0765   -1.5635 C   0  0  0  0  0  0
    5.5140   -3.4810    8.5871 H   0  0  0  0  0  0
    5.5108   -5.2767    8.5384 H   0  0  0  0  0  0
    3.9590   -4.3784    8.6462 H   0  0  0  0  0  0
    6.1676   -2.0817    7.8391 H   0  0  0  0  0  0
    1.7577   -7.4696    6.7589 H   0  0  0  0  0  0
    1.9913   -6.6787    5.1631 H   0  0  0  0  0  0
    1.5947   -5.6871    6.6075 H   0  0  0  0  0  0
    5.5495   -2.9317    2.3743 H   0  0  0  0  0  0
    3.0582   -4.7387    2.2389 H   0  0  0  0  0  0
    3.1577   -2.9719    1.9310 H   0  0  0  0  0  0
    3.1827   -4.8437   -0.1160 H   0  0  0  0  0  0
    4.0223   -3.2600   -0.2326 H   0  0  0  0  0  0
    5.2086   -5.9210   -0.1671 H   0  0  0  0  0  0
    6.0483   -4.3372   -0.2821 H   0  0  0  0  0  0
    6.8435   -4.9324    1.8818 H   0  0  0  0  0  0
    5.4403   -6.0060    2.2064 H   0  0  0  0  0  0
    8.5639    2.2016    3.2665 H   0  0  0  0  0  0
    6.5122   -1.3564    2.1655 H   0  0  0  0  0  0
    6.7820   -0.8192   -0.1481 H   0  0  0  0  0  0
    8.7755    2.6201    0.9738 H   0  0  0  0  0  0
    6.0377    0.7186   -1.7185 H   0  0  0  0  0  0
    6.3683    2.4815   -1.8169 H   0  0  0  0  0  0
    7.4358    0.2926   -3.6721 H   0  0  0  0  0  0
    6.2541    1.5831   -4.0784 H   0  0  0  0  0  0
    8.4614    2.0792   -4.9165 H   0  0  0  0  0  0
    9.7280    0.8680   -3.2460 H   0  0  0  0  0  0
   10.2407    2.5864   -3.3489 H   0  0  0  0  0  0
    8.9900    3.1415   -1.3483 H   0  0  0  0  0  0
   10.0426    1.7269   -1.0051 H   0  0  0  0  0  0
  1  2  1  0  0  0
  1 34  1  0  0  0
  1 35  1  0  0  0
  1 36  1  0  0  0
  2 12  2  0  0  0
  2  3  1  0  0  0
  3  8  2  0  0  0
  3  4  1  0  0  0
  4  5  2  0  0  0
  4 37  1  0  0  0
  5  6  1  0  0  0
  6  7  2  0  0  0
  6 21  1  0  0  0
  7  8  1  0  0  0
  8  9  1  0  0  0
  9 10  1  0  0  0
  9 16  1  0  0  0
 10 11  2  0  0  0
 10 12  1  0  0  0
 12 13  1  0  0  0
 13 14  2  0  0  0
 13 15  1  0  0  0
 15 38  1  0  0  0
 15 39  1  0  0  0
 15 40  1  0  0  0
 16 20  1  0  0  0
 16 17  1  0  0  0
 16 41  1  0  0  0
 17 18  1  0  0  0
 17 42  1  0  0  0
 17 43  1  0  0  0
 18 19  1  0  0  0
 18 44  1  0  0  0
 18 45  1  0  0  0
 19 20  1  0  0  0
 19 46  1  0  0  0
 19 47  1  0  0  0
 20 48  1  0  0  0
 20 49  1  0  0  0
 21 22  2  0  0  0
 22 23  1  0  0  0
 22 27  1  0  0  0
 23 24  2  0  0  0
 23 51  1  0  0  0
 24 25  1  0  0  0
 24 52  1  0  0  0
 25 26  2  0  0  0
 25 28  1  0  0  0
 26 27  1  0  0  0
 26 53  1  0  0  0
 27 50  1  0  0  0
 28 33  1  0  0  0
 28 29  1  0  0  0
 29 30  1  0  0  0
 29 54  1  0  0  0
 29 55  1  0  0  0
 30 31  1  0  0  0
 30 56  1  0  0  0
 30 57  1  0  0  0
 31 32  1  0  0  0
 31 58  1  0  0  0
 32 33  1  0  0  0
 32 59  1  0  0  0
 32 60  1  0  0  0
 33 61  1  0  0  0
 33 62  1  0  0  0
M  END
> <s_m_source_file>
/Users/andrea/Development/mcce-charges/epik_inhibitors/output/Palbociclib/Palbociclib-input.mol2

> <i_m_source_file_index>
1

> <r_lp_tautomer_probability>
4.85973406205523e-06

> <r_epik_Ionization_Penalty>
  6.0765

> <r_epik_Ionization_Penalty_Charging>
  4.9639

> <r_epik_Ionization_Penalty_Neutral>
  1.1126

> <r_epik_State_Penalty>
  8.6325

> <i_epik_Tot_Q>
0

$$$$
6-acetyl-8-cyclopentyl-5-methyl-2-[(5-piperazin-1-yl-2-pyridyl)amino]pyrido[2,3-d]pyrimidin-7-one
                    3D
 Structure written by MMmdl.
 62 66  0  0  1  0            999 V2000
    8.4304    2.0117   10.2019 C   0  0  0  0  0  0
    8.8647    2.6496    8.9024 C   0  0  0  0  0  0
    8.4582    1.9456    7.6649 C   0  0  0  0  0  0
    7.7716    0.7333    7.6489 C   0  0  0  0  0  0
    7.3868    0.0770    6.5337 N   0  0  0  0  0  0
    7.7181    0.6816    5.3870 C   0  0  0  0  0  0
    8.3815    1.8420    5.2587 N   0  0  0  0  0  0
    8.7502    2.4638    6.4091 C   0  0  0  0  0  0
    9.4684    3.6884    6.3241 N   0  0  0  0  0  0
    9.9022    4.3801    7.4473 C   0  0  0  0  0  0
   10.5383    5.4347    7.3966 O   0  0  0  0  0  0
    9.5692    3.7953    8.7913 C   0  0  0  0  0  0
   10.0403    4.5147    9.9932 C   0  0  0  0  0  0
    9.2329    4.9264   10.8198 O   0  0  0  0  0  0
   11.5212    4.7052   10.1551 C   0  0  0  0  0  0
    9.7526    4.2009    4.9957 C   0  0  0  0  0  0
   11.2379    4.4531    4.7664 C   0  0  0  0  0  0
   11.2633    5.3758    3.5507 C   0  0  0  0  0  0
    9.9145    6.1007    3.5416 C   0  0  0  0  0  0
    9.1470    5.5780    4.7531 C   0  0  0  0  0  0
    7.3343    0.0355    4.1922 N   0  0  0  0  0  0
    7.5051    0.3638    2.8341 C   0  0  0  0  0  0
    6.9879   -0.5181    1.8990 C   0  0  0  0  0  0
    7.1448   -0.2057    0.5532 C   0  0  0  0  0  0
    7.8094    0.9601    0.1889 C   0  0  0  0  0  0
    8.2920    1.7746    1.2005 C   0  0  0  0  0  0
    8.1555    1.5062    2.5184 N   0  0  0  0  0  0
    7.9853    1.2998   -1.1572 N   0  0  0  0  0  0
    6.7863    1.4784   -1.9874 C   0  0  0  0  0  0
    7.1339    1.3305   -3.4682 C   0  0  0  0  0  0
    8.2327    2.2167   -3.8494 N   0  0  0  0  0  0
    9.4240    1.9086   -3.0600 C   0  0  0  0  0  0
    9.1616    2.0765   -1.5635 C   0  0  0  0  0  0
    7.8726    1.0879    9.9885 H   0  0  0  0  0  0
    7.7854    2.7099   10.7555 H   0  0  0  0  0  0
    9.3172    1.7730   10.8075 H   0  0  0  0  0  0
    7.4927    0.2145    8.5609 H   0  0  0  0  0  0
   11.7206    5.2527   11.0881 H   0  0  0  0  0  0
   11.9123    5.2793    9.3022 H   0  0  0  0  0  0
   12.0151    3.7231   10.1934 H   0  0  0  0  0  0
    9.3241    3.3970    4.3792 H   0  0  0  0  0  0
   11.6714    4.9272    5.6594 H   0  0  0  0  0  0
   11.7470    3.4969    4.5753 H   0  0  0  0  0  0
   12.0961    6.0878    3.6482 H   0  0  0  0  0  0
   11.3982    4.7764    2.6383 H   0  0  0  0  0  0
   10.0808    7.1856    3.6146 H   0  0  0  0  0  0
    9.3824    5.8734    2.6061 H   0  0  0  0  0  0
    8.0703    5.4749    4.5524 H   0  0  0  0  0  0
    9.2953    6.2060    5.6439 H   0  0  0  0  0  0
    8.5639    2.2016    3.2665 H   0  0  0  0  0  0
    6.5122   -1.3564    2.1655 H   0  0  0  0  0  0
    6.7820   -0.8192   -0.1481 H   0  0  0  0  0  0
    8.7755    2.6201    0.9738 H   0  0  0  0  0  0
    6.0377    0.7186   -1.7185 H   0  0  0  0  0  0
    6.3683    2.4815   -1.8169 H   0  0  0  0  0  0
    7.4358    0.2926   -3.6721 H   0  0  0  0  0  0
    6.2541    1.5831   -4.0784 H   0  0  0  0  0  0
    8.4614    2.0792   -4.9165 H   0  0  0  0  0  0
    9.7280    0.8680   -3.2460 H   0  0  0  0  0  0
   10.2407    2.5864   -3.3489 H   0  0  0  0  0  0
    8.9900    3.1415   -1.3483 H   0  0  0  0  0  0
   10.0426    1.7269   -1.0051 H   0  0  0  0  0  0
  1  2  1  0  0  0
  1 34  1  0  0  0
  1 35  1  0  0  0
  1 36  1  0  0  0
  2 12  2  0  0  0
  2  3  1  0  0  0
  3  8  2  0  0  0
  3  4  1  0  0  0
  4  5  2  0  0  0
  4 37  1  0  0  0
  5  6  1  0  0  0
  6  7  2  0  0  0
  6 21  1  0  0  0
  7  8  1  0  0  0
  8  9  1  0  0  0
  9 10  1  0  0  0
  9 16  1  0  0  0
 10 11  2  0  0  0
 10 12  1  0  0  0
 12 13  1  0  0  0
 13 14  2  0  0  0
 13 15  1  0  0  0
 15 38  1  0  0  0
 15 39  1  0  0  0
 15 40  1  0  0  0
 16 20  1  0  0  0
 16 17  1  0  0  0
 16 41  1  0  0  0
 17 18  1  0  0  0
 17 42  1  0  0  0
 17 43  1  0  0  0
 18 19  1  0  0  0
 18 44  1  0  0  0
 18 45  1  0  0  0
 19 20  1  0  0  0
 19 46  1  0  0  0
 19 47  1  0  0  0
 20 48  1  0  0  0
 20 49  1  0  0  0
 21 22  2  0  0  0
 22 23  1  0  0  0
 22 27  1  0  0  0
 23 24  2  0  0  0
 23 51  1  0  0  0
 24 25  1  0  0  0
 24 52  1  0  0  0
 25 26  2  0  0  0
 25 28  1  0  0  0
 26 27  1  0  0  0
 26 53  1  0  0  0
 27 50  1  0  0  0
 28 33  1  0  0  0
 28 29  1  0  0  0
 29 30  1  0  0  0
 29 54  1  0  0  0
 29 55  1  0  0  0
 30 31  1  0  0  0
 30 56  1  0  0  0
 30 57  1  0  0  0
 31 32  1  0  0  0
 31 58  1  0  0  0
 32 33  1  0  0  0
 32 59  1  0  0  0
 32 60  1  0  0  0
 33 61  1  0  0  0
 33 62  1  0  0  0
M  END
> <s_m_source_file>
/Users/andrea/Development/mcce-charges/epik_inhibitors/output/Palbociclib/Palbociclib-input.mol2

> <i_m_source_file_index>
1

> <r_lp_tautomer_probability>
4.85973406205523e-06

> <r_epik_Ionization_Penalty>
  6.0765

> <r_epik_Ionization_Penalty_Charging>
  4.9639

> <r_epik_Ionization_Penalty_Neutral>
  1.1126

> <r_epik_State_Penalty>
  8.6325

> <i_epik_Tot_Q>
0

$$$$
6-acetyl-8-cyclopentyl-5-methyl-2-[(5-piperazin-1-yl-2-pyridyl)amino]pyrido[2,3-d]pyrimidin-7-one
                    3D
 Structure written by MMmdl.
 64 68  0  0  1  0            999 V2000
    8.4256    2.0145   10.2019 C   0  0  0  0  0  0
    8.8610    2.6517    8.9024 C   0  0  0  0  0  0
    8.4547    1.9476    7.6649 C   0  0  0  0  0  0
    7.7673    0.7358    7.6490 C   0  0  0  0  0  0
    7.3827    0.0794    6.5338 N   0  0  0  0  0  0
    7.7150    0.6834    5.3870 C   0  0  0  0  0  0
    8.3793    1.8433    5.2587 N   0  0  0  0  0  0
    8.7478    2.4652    6.4091 C   0  0  0  0  0  0
    9.4669    3.6893    6.3241 N   0  0  0  0  0  0
    9.9005    4.3810    7.4473 C   0  0  0  0  0  0
   10.5374    5.4352    7.3967 O   0  0  0  0  0  0
    9.5664    3.7969    8.7913 C   0  0  0  0  0  0
   10.0373    4.5164    9.9933 C   0  0  0  0  0  0
    9.2297    4.9289   10.8193 O   0  0  0  0  0  0
   11.5182    4.7059   10.1559 C   0  0  0  0  0  0
    9.7522    4.2011    4.9957 C   0  0  0  0  0  0
   11.2378    4.4522    4.7672 C   0  0  0  0  0  0
   11.2645    5.3745    3.5512 C   0  0  0  0  0  0
    9.9162    6.1003    3.5411 C   0  0  0  0  0  0
    9.1476    5.5786    4.7523 C   0  0  0  0  0  0
    7.3314    0.0371    4.1922 N   0  0  0  0  0  0
    7.5032    0.3649    2.8341 C   0  0  0  0  0  0
    6.9859   -0.5170    1.8990 C   0  0  0  0  0  0
    7.1462   -0.2065    0.5532 C   0  0  0  0  0  0
    7.8095    0.9600    0.1889 C   0  0  0  0  0  0
    8.2898    1.7759    1.2005 C   0  0  0  0  0  0
    8.1532    1.5075    2.5184 N   0  0  0  0  0  0
    7.9854    1.2998   -1.1572 N   0  3  0  0  0  0
    6.7864    1.4755   -1.9881 C   0  0  0  0  0  0
    7.1351    1.3280   -3.4687 C   0  0  0  0  0  0
    8.2322    2.2165   -3.8495 N   0  3  0  0  0  0
    9.4237    1.9112   -3.0594 C   0  0  0  0  0  0
    9.1602    2.0789   -1.5631 C   0  0  0  0  0  0
    7.8673    1.0911    9.9885 H   0  0  0  0  0  0
    7.7808    2.7133   10.7549 H   0  0  0  0  0  0
    9.3119    1.7754   10.8080 H   0  0  0  0  0  0
    7.4875    0.2175    8.5610 H   0  0  0  0  0  0
   11.7175    5.2535   11.0888 H   0  0  0  0  0  0
   11.9103    5.2795    9.3031 H   0  0  0  0  0  0
   12.0115    3.7235   10.1949 H   0  0  0  0  0  0
    9.3234    3.3973    4.3792 H   0  0  0  0  0  0
   11.6711    4.9263    5.6602 H   0  0  0  0  0  0
   11.7463    3.4956    4.5767 H   0  0  0  0  0  0
   12.0977    6.0860    3.6489 H   0  0  0  0  0  0
   11.3995    4.7748    2.6390 H   0  0  0  0  0  0
   10.0832    7.1851    3.6138 H   0  0  0  0  0  0
    9.3845    5.8731    2.6053 H   0  0  0  0  0  0
    8.0710    5.4761    4.5510 H   0  0  0  0  0  0
    9.2959    6.2068    5.6430 H   0  0  0  0  0  0
    6.7859   -0.9172    4.2338 H   0  0  0  0  0  0
    6.4691   -1.4249    2.1922 H   0  0  0  0  0  0
    6.7514   -0.8795   -0.2031 H   0  0  0  0  0  0
    8.8157    2.6997    0.9786 H   0  0  0  0  0  0
    6.0393    0.7142   -1.7194 H   0  0  0  0  0  0
    6.3661    2.4777   -1.8181 H   0  0  0  0  0  0
    7.4394    0.2907   -3.6721 H   0  0  0  0  0  0
    6.2551    1.5784   -4.0794 H   0  0  0  0  0  0
    8.4618    2.0791   -4.9165 H   0  0  0  0  0  0
    9.7301    0.8712   -3.2450 H   0  0  0  0  0  0
   10.2391    2.5907   -3.3481 H   0  0  0  0  0  0
    8.9861    3.1436   -1.3483 H   0  0  0  0  0  0
   10.0416    1.7314   -1.0042 H   0  0  0  0  0  0
    7.9376    3.2609   -3.6694 H   0  0  0  0  0  0
    8.3210    0.2684   -1.3405 H   0  0  0  0  0  0
  1  2  1  0  0  0
  1 34  1  0  0  0
  1 35  1  0  0  0
  1 36  1  0  0  0
  2 12  2  0  0  0
  2  3  1  0  0  0
  3  8  2  0  0  0
  3  4  1  0  0  0
  4  5  2  0  0  0
  4 37  1  0  0  0
  5  6  1  0  0  0
  6  7  2  0  0  0
  6 21  1  0  0  0
  7  8  1  0  0  0
  8  9  1  0  0  0
  9 10  1  0  0  0
  9 16  1  0  0  0
 10 11  2  0  0  0
 10 12  1  0  0  0
 12 13  1  0  0  0
 13 14  2  0  0  0
 13 15  1  0  0  0
 15 38  1  0  0  0
 15 39  1  0  0  0
 15 40  1  0  0  0
 16 20  1  0  0  0
 16 17  1  0  0  0
 16 41  1  0  0  0
 17 18  1  0  0  0
 17 42  1  0  0  0
 17 43  1  0  0  0
 18 19  1  0  0  0
 18 44  1  0  0  0
 18 45  1  0  0  0
 19 20  1  0  0  0
 19 46  1  0  0  0
 19 47  1  0  0  0
 20 48  1  0  0  0
 20 49  1  0  0  0
 21 22  1  0  0  0
 21 50  1  0  0  0
 22 27  2  0  0  0
 22 23  1  0  0  0
 23 24  2  0  0  0
 23 51  1  0  0  0
 24 25  1  0  0  0
 24 52  1  0  0  0
 25 26  2  0  0  0
 25 28  1  0  0  0
 26 27  1  0  0  0
 26 53  1  0  0  0
 28 33  1  0  0  0
 28 29  1  0  0  0
 28 64  1  0  0  0
 29 30  1  0  0  0
 29 54  1  0  0  0
 29 55  1  0  0  0
 30 31  1  0  0  0
 30 56  1  0  0  0
 30 57  1  0  0  0
 31 32  1  0  0  0
 31 58  1  0  0  0
 31 63  1  0  0  0
 32 33  1  0  0  0
 32 59  1  0  0  0
 32 60  1  0  0  0
 33 61  1  0  0  0
 33 62  1  0  0  0
M  CHG  2  28   1  31   1
M  END
> <s_m_source_file>
/Users/andrea/Development/mcce-charges/epik_inhibitors/output/Palbociclib/Palbociclib-input.mol2

> <i_m_source_file_index>
1

> <r_epik_Ionization_Penalty>
 10.1801

> <r_epik_Ionization_Penalty_Charging>
 10.0355

> <r_epik_Ionization_Penalty_Neutral>
  0.1446

> <r_epik_State_Penalty>
  8.6960

> <i_epik_Tot_Q>
2

> <s_epik_Chemistry_Notes>
This compound has an imine and may undergo hydrolysis.

$$$$
6-acetyl-8-cyclopentyl-5-methyl-2-[(5-piperazin-1-yl-2-pyridyl)amino]pyrido[2,3-d]pyrimidin-7-one
                    3D
 Structure written by MMmdl.
 63 67  0  0  1  0            999 V2000
    8.4256    2.0145   10.2019 C   0  0  0  0  0  0
    8.8610    2.6517    8.9024 C   0  0  0  0  0  0
    8.4547    1.9476    7.6649 C   0  0  0  0  0  0
    7.7673    0.7358    7.6490 C   0  0  0  0  0  0
    7.3827    0.0794    6.5338 N   0  0  0  0  0  0
    7.7150    0.6834    5.3870 C   0  0  0  0  0  0
    8.3793    1.8433    5.2587 N   0  0  0  0  0  0
    8.7478    2.4652    6.4091 C   0  0  0  0  0  0
    9.4669    3.6893    6.3241 N   0  0  0  0  0  0
    9.9005    4.3810    7.4473 C   0  0  0  0  0  0
   10.5374    5.4352    7.3967 O   0  0  0  0  0  0
    9.5664    3.7969    8.7913 C   0  0  0  0  0  0
   10.0373    4.5164    9.9933 C   0  0  0  0  0  0
    9.2293    4.9352   10.8157 O   0  5  0  0  0  0
   11.5182    4.7059   10.1559 C   0  0  0  0  0  0
    9.7522    4.2011    4.9957 C   0  0  0  0  0  0
   11.2378    4.4522    4.7672 C   0  0  0  0  0  0
   11.2645    5.3745    3.5512 C   0  0  0  0  0  0
    9.9162    6.1003    3.5411 C   0  0  0  0  0  0
    9.1476    5.5786    4.7523 C   0  0  0  0  0  0
    7.3314    0.0371    4.1922 N   0  0  0  0  0  0
    7.5032    0.3649    2.8341 C   0  0  0  0  0  0
    6.9859   -0.5170    1.8990 C   0  0  0  0  0  0
    7.1462   -0.2065    0.5532 C   0  0  0  0  0  0
    7.8095    0.9600    0.1889 C   0  0  0  0  0  0
    8.2898    1.7759    1.2005 C   0  0  0  0  0  0
    8.1532    1.5075    2.5184 N   0  3  0  0  0  0
    7.9854    1.2998   -1.1572 N   0  0  0  0  0  0
    6.7864    1.4755   -1.9881 C   0  0  0  0  0  0
    7.1351    1.3280   -3.4687 C   0  0  0  0  0  0
    8.2322    2.2165   -3.8495 N   0  3  0  0  0  0
    9.4237    1.9112   -3.0594 C   0  0  0  0  0  0
    9.1602    2.0789   -1.5631 C   0  0  0  0  0  0
    7.8673    1.0911    9.9885 H   0  0  0  0  0  0
    7.7808    2.7133   10.7549 H   0  0  0  0  0  0
    9.3119    1.7754   10.8080 H   0  0  0  0  0  0
    7.4875    0.2175    8.5610 H   0  0  0  0  0  0
   11.9115    5.2358   11.0359 H   0  0  0  0  0  0
   12.2096    4.3148    9.3950 H   0  0  0  0  0  0
    9.3234    3.3973    4.3792 H   0  0  0  0  0  0
   11.6711    4.9263    5.6602 H   0  0  0  0  0  0
   11.7463    3.4956    4.5767 H   0  0  0  0  0  0
   12.0977    6.0860    3.6489 H   0  0  0  0  0  0
   11.3995    4.7748    2.6390 H   0  0  0  0  0  0
   10.0832    7.1851    3.6138 H   0  0  0  0  0  0
    9.3845    5.8731    2.6053 H   0  0  0  0  0  0
    8.0710    5.4761    4.5510 H   0  0  0  0  0  0
    9.2959    6.2068    5.6430 H   0  0  0  0  0  0
    6.7859   -0.9172    4.2338 H   0  0  0  0  0  0
    6.5091   -1.3546    2.1655 H   0  0  0  0  0  0
    6.7854   -0.8212   -0.1482 H   0  0  0  0  0  0
    8.7714    2.6225    0.9739 H   0  0  0  0  0  0
    6.0393    0.7142   -1.7194 H   0  0  0  0  0  0
    6.3661    2.4777   -1.8181 H   0  0  0  0  0  0
    7.4394    0.2907   -3.6721 H   0  0  0  0  0  0
    6.2551    1.5784   -4.0794 H   0  0  0  0  0  0
    8.4618    2.0791   -4.9165 H   0  0  0  0  0  0
    9.7301    0.8712   -3.2450 H   0  0  0  0  0  0
   10.2391    2.5907   -3.3481 H   0  0  0  0  0  0
    8.9861    3.1436   -1.3483 H   0  0  0  0  0  0
   10.0416    1.7314   -1.0042 H   0  0  0  0  0  0
    7.9376    3.2609   -3.6694 H   0  0  0  0  0  0
    8.5372    2.1602    3.3162 H   0  0  0  0  0  0
  1  2  1  0  0  0
  1 34  1  0  0  0
  1 35  1  0  0  0
  1 36  1  0  0  0
  2 12  2  0  0  0
  2  3  1  0  0  0
  3  8  2  0  0  0
  3  4  1  0  0  0
  4  5  2  0  0  0
  4 37  1  0  0  0
  5  6  1  0  0  0
  6  7  2  0  0  0
  6 21  1  0  0  0
  7  8  1  0  0  0
  8  9  1  0  0  0
  9 10  1  0  0  0
  9 16  1  0  0  0
 10 11  2  0  0  0
 10 12  1  0  0  0
 12 13  1  0  0  0
 13 15  2  0  0  0
 13 14  1  0  0  0
 15 38  1  0  0  0
 15 39  1  0  0  0
 16 20  1  0  0  0
 16 17  1  0  0  0
 16 40  1  0  0  0
 17 18  1  0  0  0
 17 41  1  0  0  0
 17 42  1  0  0  0
 18 19  1  0  0  0
 18 43  1  0  0  0
 18 44  1  0  0  0
 19 20  1  0  0  0
 19 45  1  0  0  0
 19 46  1  0  0  0
 20 47  1  0  0  0
 20 48  1  0  0  0
 21 22  1  0  0  0
 21 49  1  0  0  0
 22 27  2  0  0  0
 22 23  1  0  0  0
 23 24  2  0  0  0
 23 50  1  0  0  0
 24 25  1  0  0  0
 24 51  1  0  0  0
 25 26  2  0  0  0
 25 28  1  0  0  0
 26 27  1  0  0  0
 26 52  1  0  0  0
 27 63  1  0  0  0
 28 33  1  0  0  0
 28 29  1  0  0  0
 29 30  1  0  0  0
 29 53  1  0  0  0
 29 54  1  0  0  0
 30 31  1  0  0  0
 30 55  1  0  0  0
 30 56  1  0  0  0
 31 32  1  0  0  0
 31 57  1  0  0  0
 31 62  1  0  0  0
 32 33  1  0  0  0
 32 58  1  0  0  0
 32 59  1  0  0  0
 33 60  1  0  0  0
 33 61  1  0  0  0
M  CHG  3  14  -1  27   1  31   1
M  END
> <s_m_source_file>
/Users/andrea/Development/mcce-charges/epik_inhibitors/output/Palbociclib/Palbociclib-input.mol2

> <i_m_source_file_index>
1

> <r_epik_Ionization_Penalty>
  0.9091

> <r_epik_Ionization_Penalty_Charging>
  0.9091

> <r_epik_Ionization_Penalty_Neutral>
  0.0000

> <r_epik_State_Penalty>
  8.8270

> <i_epik_Tot_Q>
1

> <s_epik_Chemistry_Notes>
This compound has an imine and may undergo hydrolysis.

$$$$
6-acetyl-8-cyclopentyl-5-methyl-2-[(5-piperazin-1-yl-2-pyridyl)amino]pyrido[2,3-d]pyrimidin-7-one
                    3D
 Structure written by MMmdl.
 64 68  0  0  1  0            999 V2000
    8.4256    2.0145   10.2019 C   0  0  0  0  0  0
    8.8610    2.6517    8.9024 C   0  0  0  0  0  0
    8.4547    1.9476    7.6649 C   0  0  0  0  0  0
    7.7673    0.7358    7.6490 C   0  0  0  0  0  0
    7.3827    0.0794    6.5338 N   0  0  0  0  0  0
    7.7150    0.6834    5.3870 C   0  0  0  0  0  0
    8.3793    1.8433    5.2587 N   0  0  0  0  0  0
    8.7478    2.4652    6.4091 C   0  0  0  0  0  0
    9.4669    3.6893    6.3241 N   0  0  0  0  0  0
    9.9005    4.3810    7.4473 C   0  0  0  0  0  0
   10.5374    5.4352    7.3967 O   0  0  0  0  0  0
    9.5664    3.7969    8.7913 C   0  0  0  0  0  0
   10.0373    4.5164    9.9933 C   0  0  0  0  0  0
    9.2297    4.9289   10.8193 O   0  0  0  0  0  0
   11.5182    4.7059   10.1559 C   0  0  0  0  0  0
    9.7522    4.2011    4.9957 C   0  0  0  0  0  0
   11.2378    4.4522    4.7672 C   0  0  0  0  0  0
   11.2645    5.3745    3.5512 C   0  0  0  0  0  0
    9.9162    6.1003    3.5411 C   0  0  0  0  0  0
    9.1476    5.5786    4.7523 C   0  0  0  0  0  0
    7.3314    0.0371    4.1922 N   0  3  0  0  0  0
    7.5032    0.3649    2.8341 C   0  0  0  0  0  0
    6.9874   -0.5178    1.8990 C   0  0  0  0  0  0
    7.1492   -0.2082    0.5532 C   0  0  0  0  0  0
    7.8126    0.9582    0.1889 C   0  0  0  0  0  0
    8.2898    1.7759    1.2005 C   0  0  0  0  0  0
    8.1532    1.5075    2.5184 N   0  0  0  0  0  0
    7.9910    1.2966   -1.1573 N   0  0  0  0  0  0
    6.7936    1.4718   -1.9905 C   0  0  0  0  0  0
    7.1449    1.3227   -3.4703 C   0  0  0  0  0  0
    8.2430    2.2104   -3.8501 N   0  3  0  0  0  0
    9.4330    1.9055   -3.0575 C   0  0  0  0  0  0
    9.1668    2.0748   -1.5619 C   0  0  0  0  0  0
    7.8673    1.0911    9.9885 H   0  0  0  0  0  0
    7.7808    2.7133   10.7549 H   0  0  0  0  0  0
    9.3119    1.7754   10.8080 H   0  0  0  0  0  0
    7.4875    0.2175    8.5610 H   0  0  0  0  0  0
   11.7175    5.2535   11.0888 H   0  0  0  0  0  0
   11.9103    5.2795    9.3031 H   0  0  0  0  0  0
   12.0115    3.7235   10.1949 H   0  0  0  0  0  0
    9.3234    3.3973    4.3792 H   0  0  0  0  0  0
   11.6711    4.9263    5.6602 H   0  0  0  0  0  0
   11.7463    3.4956    4.5767 H   0  0  0  0  0  0
   12.0977    6.0860    3.6489 H   0  0  0  0  0  0
   11.3995    4.7748    2.6390 H   0  0  0  0  0  0
   10.0832    7.1851    3.6138 H   0  0  0  0  0  0
    9.3845    5.8731    2.6053 H   0  0  0  0  0  0
    8.0710    5.4761    4.5510 H   0  0  0  0  0  0
    9.2959    6.2068    5.6430 H   0  0  0  0  0  0
    6.2575   -0.0359    4.4187 H   0  0  0  0  0  0
    6.5109   -1.3557    2.1655 H   0  0  0  0  0  0
    6.7893   -0.8234   -0.1482 H   0  0  0  0  0  0
    8.7716    2.6224    0.9739 H   0  0  0  0  0  0
    6.0458    0.7110   -1.7223 H   0  0  0  0  0  0
    6.3733    2.4743   -1.8223 H   0  0  0  0  0  0
    7.4492    0.2850   -3.6721 H   0  0  0  0  0  0
    6.2661    1.5728   -4.0829 H   0  0  0  0  0  0
    8.4745    2.0718   -4.9165 H   0  0  0  0  0  0
    9.7394    0.8652   -3.2414 H   0  0  0  0  0  0
   10.2492    2.5845   -3.3454 H   0  0  0  0  0  0
    8.9928    3.1398   -1.3485 H   0  0  0  0  0  0
   10.0471    1.7277   -1.0010 H   0  0  0  0  0  0
    7.8165   -0.9279    4.4007 H   0  0  0  0  0  0
    7.9485    3.2551   -3.6715 H   0  0  0  0  0  0
  1  2  1  0  0  0
  1 34  1  0  0  0
  1 35  1  0  0  0
  1 36  1  0  0  0
  2 12  2  0  0  0
  2  3  1  0  0  0
  3  8  2  0  0  0
  3  4  1  0  0  0
  4  5  2  0  0  0
  4 37  1  0  0  0
  5  6  1  0  0  0
  6  7  2  0  0  0
  6 21  1  0  0  0
  7  8  1  0  0  0
  8  9  1  0  0  0
  9 10  1  0  0  0
  9 16  1  0  0  0
 10 11  2  0  0  0
 10 12  1  0  0  0
 12 13  1  0  0  0
 13 14  2  0  0  0
 13 15  1  0  0  0
 15 38  1  0  0  0
 15 39  1  0  0  0
 15 40  1  0  0  0
 16 20  1  0  0  0
 16 17  1  0  0  0
 16 41  1  0  0  0
 17 18  1  0  0  0
 17 42  1  0  0  0
 17 43  1  0  0  0
 18 19  1  0  0  0
 18 44  1  0  0  0
 18 45  1  0  0  0
 19 20  1  0  0  0
 19 46  1  0  0  0
 19 47  1  0  0  0
 20 48  1  0  0  0
 20 49  1  0  0  0
 21 22  1  0  0  0
 21 63  1  0  0  0
 21 50  1  0  0  0
 22 27  2  0  0  0
 22 23  1  0  0  0
 23 24  2  0  0  0
 23 51  1  0  0  0
 24 52  1  0  0  0
 24 25  1  0  0  0
 25 28  1  0  0  0
 25 26  2  0  0  0
 26 53  1  0  0  0
 26 27  1  0  0  0
 28 33  1  0  0  0
 28 29  1  0  0  0
 29 30  1  0  0  0
 29 54  1  0  0  0
 29 55  1  0  0  0
 30 31  1  0  0  0
 30 56  1  0  0  0
 30 57  1  0  0  0
 31 32  1  0  0  0
 31 58  1  0  0  0
 31 64  1  0  0  0
 32 33  1  0  0  0
 32 59  1  0  0  0
 32 60  1  0  0  0
 33 61  1  0  0  0
 33 62  1  0  0  0
M  CHG  2  21   1  31   1
M  END
> <s_m_source_file>
/Users/andrea/Development/mcce-charges/epik_inhibitors/output/Palbociclib/Palbociclib-input.mol2

> <i_m_source_file_index>
1

> <r_lp_tautomer_probability>
6.14765480421826e-06

> <r_epik_Ionization_Penalty>
 10.3508

> <r_epik_Ionization_Penalty_Charging>
 10.3508

> <r_epik_Ionization_Penalty_Neutral>
  0.0000

> <r_epik_State_Penalty>
  9.2417

> <i_epik_Tot_Q>
2

$$$$
6-acetyl-8-cyclopentyl-5-methyl-2-[(5-piperazin-1-yl-2-pyridyl)amino]pyrido[2,3-d]pyrimidin-7-one
                    3D
 Structure written by MMmdl.
 65 69  0  0  1  0            999 V2000
    8.4256    2.0145   10.2019 C   0  0  0  0  0  0
    8.8610    2.6517    8.9024 C   0  0  0  0  0  0
    8.4547    1.9476    7.6649 C   0  0  0  0  0  0
    7.7673    0.7358    7.6490 C   0  0  0  0  0  0
    7.3827    0.0794    6.5338 N   0  0  0  0  0  0
    7.7150    0.6834    5.3870 C   0  0  0  0  0  0
    8.3793    1.8433    5.2587 N   0  0  0  0  0  0
    8.7478    2.4652    6.4091 C   0  0  0  0  0  0
    9.4669    3.6893    6.3241 N   0  0  0  0  0  0
    9.9005    4.3810    7.4473 C   0  0  0  0  0  0
   10.5374    5.4352    7.3967 O   0  0  0  0  0  0
    9.5664    3.7969    8.7913 C   0  0  0  0  0  0
   10.0373    4.5164    9.9933 C   0  0  0  0  0  0
    9.2297    4.9289   10.8193 O   0  0  0  0  0  0
   11.5182    4.7059   10.1559 C   0  0  0  0  0  0
    9.7522    4.2011    4.9957 C   0  0  0  0  0  0
   11.2378    4.4522    4.7672 C   0  0  0  0  0  0
   11.2645    5.3745    3.5512 C   0  0  0  0  0  0
    9.9162    6.1003    3.5411 C   0  0  0  0  0  0
    9.1476    5.5786    4.7523 C   0  0  0  0  0  0
    7.3314    0.0371    4.1922 N   0  0  0  0  0  0
    7.5032    0.3649    2.8341 C   0  0  0  0  0  0
    6.9859   -0.5170    1.8990 C   0  0  0  0  0  0
    7.1462   -0.2065    0.5532 C   0  0  0  0  0  0
    7.8095    0.9600    0.1889 C   0  0  0  0  0  0
    8.2898    1.7759    1.2005 C   0  0  0  0  0  0
    8.1532    1.5075    2.5184 N   0  3  0  0  0  0
    7.9854    1.2998   -1.1572 N   0  3  0  0  0  0
    6.7864    1.4755   -1.9881 C   0  0  0  0  0  0
    7.1351    1.3280   -3.4687 C   0  0  0  0  0  0
    8.2322    2.2165   -3.8495 N   0  3  0  0  0  0
    9.4237    1.9112   -3.0594 C   0  0  0  0  0  0
    9.1602    2.0789   -1.5631 C   0  0  0  0  0  0
    7.8673    1.0911    9.9885 H   0  0  0  0  0  0
    7.7808    2.7133   10.7549 H   0  0  0  0  0  0
    9.3119    1.7754   10.8080 H   0  0  0  0  0  0
    7.4875    0.2175    8.5610 H   0  0  0  0  0  0
   11.7175    5.2535   11.0888 H   0  0  0  0  0  0
   11.9103    5.2795    9.3031 H   0  0  0  0  0  0
   12.0115    3.7235   10.1949 H   0  0  0  0  0  0
    9.3234    3.3973    4.3792 H   0  0  0  0  0  0
   11.6711    4.9263    5.6602 H   0  0  0  0  0  0
   11.7463    3.4956    4.5767 H   0  0  0  0  0  0
   12.0977    6.0860    3.6489 H   0  0  0  0  0  0
   11.3995    4.7748    2.6390 H   0  0  0  0  0  0
   10.0832    7.1851    3.6138 H   0  0  0  0  0  0
    9.3845    5.8731    2.6053 H   0  0  0  0  0  0
    8.0710    5.4761    4.5510 H   0  0  0  0  0  0
    9.2959    6.2068    5.6430 H   0  0  0  0  0  0
    6.7859   -0.9172    4.2338 H   0  0  0  0  0  0
    6.4691   -1.4249    2.1922 H   0  0  0  0  0  0
    6.7514   -0.8795   -0.2031 H   0  0  0  0  0  0
    8.8157    2.6997    0.9786 H   0  0  0  0  0  0
    6.0393    0.7142   -1.7194 H   0  0  0  0  0  0
    6.3661    2.4777   -1.8181 H   0  0  0  0  0  0
    7.4394    0.2907   -3.6721 H   0  0  0  0  0  0
    6.2551    1.5784   -4.0794 H   0  0  0  0  0  0
    8.4618    2.0791   -4.9165 H   0  0  0  0  0  0
    9.7301    0.8712   -3.2450 H   0  0  0  0  0  0
   10.2391    2.5907   -3.3481 H   0  0  0  0  0  0
    8.9861    3.1436   -1.3483 H   0  0  0  0  0  0
   10.0416    1.7314   -1.0042 H   0  0  0  0  0  0
    7.9376    3.2609   -3.6694 H   0  0  0  0  0  0
    8.5372    2.1602    3.3162 H   0  0  0  0  0  0
    8.3210    0.2684   -1.3405 H   0  0  0  0  0  0
  1  2  1  0  0  0
  1 34  1  0  0  0
  1 35  1  0  0  0
  1 36  1  0  0  0
  2 12  2  0  0  0
  2  3  1  0  0  0
  3  8  2  0  0  0
  3  4  1  0  0  0
  4  5  2  0  0  0
  4 37  1  0  0  0
  5  6  1  0  0  0
  6  7  2  0  0  0
  6 21  1  0  0  0
  7  8  1  0  0  0
  8  9  1  0  0  0
  9 10  1  0  0  0
  9 16  1  0  0  0
 10 11  2  0  0  0
 10 12  1  0  0  0
 12 13  1  0  0  0
 13 14  2  0  0  0
 13 15  1  0  0  0
 15 38  1  0  0  0
 15 39  1  0  0  0
 15 40  1  0  0  0
 16 20  1  0  0  0
 16 17  1  0  0  0
 16 41  1  0  0  0
 17 18  1  0  0  0
 17 42  1  0  0  0
 17 43  1  0  0  0
 18 19  1  0  0  0
 18 44  1  0  0  0
 18 45  1  0  0  0
 19 20  1  0  0  0
 19 46  1  0  0  0
 19 47  1  0  0  0
 20 48  1  0  0  0
 20 49  1  0  0  0
 21 22  1  0  0  0
 21 50  1  0  0  0
 22 27  2  0  0  0
 22 23  1  0  0  0
 23 24  2  0  0  0
 23 51  1  0  0  0
 24 25  1  0  0  0
 24 52  1  0  0  0
 25 26  2  0  0  0
 25 28  1  0  0  0
 26 27  1  0  0  0
 26 53  1  0  0  0
 27 64  1  0  0  0
 28 33  1  0  0  0
 28 29  1  0  0  0
 28 65  1  0  0  0
 29 30  1  0  0  0
 29 54  1  0  0  0
 29 55  1  0  0  0
 30 31  1  0  0  0
 30 56  1  0  0  0
 30 57  1  0  0  0
 31 32  1  0  0  0
 31 58  1  0  0  0
 31 63  1  0  0  0
 32 33  1  0  0  0
 32 59  1  0  0  0
 32 60  1  0  0  0
 33 61  1  0  0  0
 33 62  1  0  0  0
M  CHG  3  27   1  28   1  31   1
M  END
> <s_m_source_file>
/Users/andrea/Development/mcce-charges/epik_inhibitors/output/Palbociclib/Palbociclib-input.mol2

> <i_m_source_file_index>
1

> <r_lp_tautomer_probability>
0.99995

> <r_epik_Ionization_Penalty>
  9.6572

> <r_epik_Ionization_Penalty_Charging>
  9.6572

> <r_epik_Ionization_Penalty_Neutral>
  0.0000

> <r_epik_State_Penalty>
  9.4625

> <i_epik_Tot_Q>
3

> <s_epik_Chemistry_Notes>
This compound has an imine and may undergo hydrolysis.

$$$$
6-acetyl-8-cyclopentyl-5-methyl-2-[(5-piperazin-1-yl-2-pyridyl)amino]pyrido[2,3-d]pyrimidin-7-one
                    3D
 Structure written by MMmdl.
 62 66  0  0  1  0            999 V2000
    8.4256    2.0145   10.2019 C   0  0  0  0  0  0
    8.8610    2.6517    8.9024 C   0  0  0  0  0  0
    8.4547    1.9476    7.6649 C   0  0  0  0  0  0
    7.7673    0.7358    7.6490 C   0  0  0  0  0  0
    7.3827    0.0794    6.5338 N   0  0  0  0  0  0
    7.7150    0.6834    5.3870 C   0  0  0  0  0  0
    8.3793    1.8433    5.2587 N   0  0  0  0  0  0
    8.7478    2.4652    6.4091 C   0  0  0  0  0  0
    9.4669    3.6893    6.3241 N   0  0  0  0  0  0
    9.9005    4.3810    7.4473 C   0  0  0  0  0  0
   10.5374    5.4352    7.3967 O   0  0  0  0  0  0
    9.5664    3.7969    8.7913 C   0  0  0  0  0  0
   10.0373    4.5164    9.9933 C   0  0  0  0  0  0
    9.2293    4.9352   10.8157 O   0  5  0  0  0  0
   11.5182    4.7059   10.1559 C   0  0  0  0  0  0
    9.7522    4.2011    4.9957 C   0  0  0  0  0  0
   11.2378    4.4522    4.7672 C   0  0  0  0  0  0
   11.2645    5.3745    3.5512 C   0  0  0  0  0  0
    9.9162    6.1003    3.5411 C   0  0  0  0  0  0
    9.1476    5.5786    4.7523 C   0  0  0  0  0  0
    7.3314    0.0371    4.1922 N   0  0  0  0  0  0
    7.5032    0.3649    2.8341 C   0  0  0  0  0  0
    6.9859   -0.5170    1.8990 C   0  0  0  0  0  0
    7.1462   -0.2065    0.5532 C   0  0  0  0  0  0
    7.8095    0.9600    0.1889 C   0  0  0  0  0  0
    8.2898    1.7759    1.2005 C   0  0  0  0  0  0
    8.1532    1.5075    2.5184 N   0  3  0  0  0  0
    7.9854    1.2998   -1.1572 N   0  0  0  0  0  0
    6.7864    1.4755   -1.9881 C   0  0  0  0  0  0
    7.1351    1.3280   -3.4687 C   0  0  0  0  0  0
    8.2322    2.2165   -3.8495 N   0  0  0  0  0  0
    9.4237    1.9112   -3.0594 C   0  0  0  0  0  0
    9.1602    2.0789   -1.5631 C   0  0  0  0  0  0
    7.8673    1.0911    9.9885 H   0  0  0  0  0  0
    7.7808    2.7133   10.7549 H   0  0  0  0  0  0
    9.3119    1.7754   10.8080 H   0  0  0  0  0  0
    7.4875    0.2175    8.5610 H   0  0  0  0  0  0
   11.9115    5.2358   11.0359 H   0  0  0  0  0  0
   12.2096    4.3148    9.3950 H   0  0  0  0  0  0
    9.3234    3.3973    4.3792 H   0  0  0  0  0  0
   11.6711    4.9263    5.6602 H   0  0  0  0  0  0
   11.7463    3.4956    4.5767 H   0  0  0  0  0  0
   12.0977    6.0860    3.6489 H   0  0  0  0  0  0
   11.3995    4.7748    2.6390 H   0  0  0  0  0  0
   10.0832    7.1851    3.6138 H   0  0  0  0  0  0
    9.3845    5.8731    2.6053 H   0  0  0  0  0  0
    8.0710    5.4761    4.5510 H   0  0  0  0  0  0
    9.2959    6.2068    5.6430 H   0  0  0  0  0  0
    6.7859   -0.9172    4.2338 H   0  0  0  0  0  0
    6.5091   -1.3546    2.1655 H   0  0  0  0  0  0
    6.7854   -0.8212   -0.1482 H   0  0  0  0  0  0
    8.7714    2.6225    0.9739 H   0  0  0  0  0  0
    6.0393    0.7142   -1.7194 H   0  0  0  0  0  0
    6.3661    2.4777   -1.8181 H   0  0  0  0  0  0
    7.4394    0.2907   -3.6721 H   0  0  0  0  0  0
    6.2551    1.5784   -4.0794 H   0  0  0  0  0  0
    8.4618    2.0791   -4.9165 H   0  0  0  0  0  0
    9.7301    0.8712   -3.2450 H   0  0  0  0  0  0
   10.2391    2.5907   -3.3481 H   0  0  0  0  0  0
    8.9861    3.1436   -1.3483 H   0  0  0  0  0  0
   10.0416    1.7314   -1.0042 H   0  0  0  0  0  0
    8.5372    2.1602    3.3162 H   0  0  0  0  0  0
  1  2  1  0  0  0
  1 34  1  0  0  0
  1 35  1  0  0  0
  1 36  1  0  0  0
  2 12  2  0  0  0
  2  3  1  0  0  0
  3  8  2  0  0  0
  3  4  1  0  0  0
  4  5  2  0  0  0
  4 37  1  0  0  0
  5  6  1  0  0  0
  6  7  2  0  0  0
  6 21  1  0  0  0
  7  8  1  0  0  0
  8  9  1  0  0  0
  9 10  1  0  0  0
  9 16  1  0  0  0
 10 11  2  0  0  0
 10 12  1  0  0  0
 12 13  1  0  0  0
 13 15  2  0  0  0
 13 14  1  0  0  0
 15 38  1  0  0  0
 15 39  1  0  0  0
 16 20  1  0  0  0
 16 17  1  0  0  0
 16 40  1  0  0  0
 17 18  1  0  0  0
 17 41  1  0  0  0
 17 42  1  0  0  0
 18 19  1  0  0  0
 18 43  1  0  0  0
 18 44  1  0  0  0
 19 20  1  0  0  0
 19 45  1  0  0  0
 19 46  1  0  0  0
 20 47  1  0  0  0
 20 48  1  0  0  0
 21 22  1  0  0  0
 21 49  1  0  0  0
 22 27  2  0  0  0
 22 23  1  0  0  0
 23 24  2  0  0  0
 23 50  1  0  0  0
 24 25  1  0  0  0
 24 51  1  0  0  0
 25 26  2  0  0  0
 25 28  1  0  0  0
 26 27  1  0  0  0
 26 52  1  0  0  0
 27 62  1  0  0  0
 28 33  1  0  0  0
 28 29  1  0  0  0
 29 30  1  0  0  0
 29 53  1  0  0  0
 29 54  1  0  0  0
 30 31  1  0  0  0
 30 55  1  0  0  0
 30 56  1  0  0  0
 31 32  1  0  0  0
 31 57  1  0  0  0
 32 33  1  0  0  0
 32 58  1  0  0  0
 32 59  1  0  0  0
 33 60  1  0  0  0
 33 61  1  0  0  0
M  CHG  2  14  -1  27   1
M  END
> <s_m_source_file>
/Users/andrea/Development/mcce-charges/epik_inhibitors/output/Palbociclib/Palbociclib-input.mol2

> <i_m_source_file_index>
1

> <r_epik_Ionization_Penalty>
  1.2350

> <r_epik_Ionization_Penalty_Charging>
  0.1224

> <r_epik_Ionization_Penalty_Neutral>
  1.1126

> <r_epik_State_Penalty>
  9.7741

> <i_epik_Tot_Q>
0

> <s_epik_Chemistry_Notes>
This compound has an imine and may undergo hydrolysis.

$$$$
6-acetyl-8-cyclopentyl-5-methyl-2-[(5-piperazin-1-yl-2-pyridyl)amino]pyrido[2,3-d]pyrimidin-7-one
                    3D
 Structure written by MMmdl.
 62 66  0  0  1  0            999 V2000
    4.9750   -4.3687    8.2246 C   0  0  0  0  0  0
    4.8939   -4.3277    6.7159 C   0  0  0  0  0  0
    5.5384   -3.1663    6.0616 C   0  0  0  0  0  0
    6.1398   -2.1177    6.7544 C   0  0  0  0  0  0
    6.7373   -1.0526    6.1789 N   0  0  0  0  0  0
    6.7185   -1.0565    4.8410 C   0  0  0  0  0  0
    6.1704   -1.9953    4.0528 N   0  0  0  0  0  0
    5.5784   -3.0463    4.6779 C   0  0  0  0  0  0
    4.9705   -4.0587    3.8852 N   0  0  0  0  0  0
    4.3257   -5.1561    4.4402 C   0  0  0  0  0  0
    3.7799   -6.0372    3.7729 O   0  0  0  0  0  0
    4.3010   -5.2588    5.9395 C   0  0  0  0  0  0
    3.6031   -6.4143    6.5411 C   0  0  0  0  0  0
    4.2165   -7.1990    7.2571 O   0  0  0  0  0  0
    2.1387   -6.5731    6.2481 C   0  0  0  0  0  0
    5.0348   -3.9014    2.4433 C   0  0  0  0  0  0
    3.6612   -3.9388    1.7844 C   0  0  0  0  0  0
    3.9735   -4.2125    0.3155 C   0  0  0  0  0  0
    5.3257   -4.9307    0.2972 C   0  0  0  0  0  0
    5.7574   -5.0537    1.7562 C   0  0  0  0  0  0
    7.3343    0.0355    4.1922 N   0  0  0  0  0  0
    7.5051    0.3638    2.8341 C   0  0  0  0  0  0
    6.9879   -0.5181    1.8990 C   0  0  0  0  0  0
    7.1448   -0.2057    0.5532 C   0  0  0  0  0  0
    7.8094    0.9601    0.1889 C   0  0  0  0  0  0
    8.2920    1.7746    1.2005 C   0  0  0  0  0  0
    8.1555    1.5062    2.5184 N   0  5  0  0  0  0
    7.9853    1.2998   -1.1572 N   0  0  0  0  0  0
    6.7863    1.4784   -1.9874 C   0  0  0  0  0  0
    7.1339    1.3305   -3.4682 C   0  0  0  0  0  0
    8.2327    2.2167   -3.8494 N   0  3  0  0  0  0
    9.4240    1.9086   -3.0600 C   0  0  0  0  0  0
    9.1616    2.0765   -1.5635 C   0  0  0  0  0  0
    5.5140   -3.4810    8.5871 H   0  0  0  0  0  0
    5.5108   -5.2767    8.5384 H   0  0  0  0  0  0
    3.9590   -4.3784    8.6462 H   0  0  0  0  0  0
    6.1676   -2.0817    7.8391 H   0  0  0  0  0  0
    1.7577   -7.4696    6.7589 H   0  0  0  0  0  0
    1.9913   -6.6787    5.1631 H   0  0  0  0  0  0
    1.5947   -5.6871    6.6075 H   0  0  0  0  0  0
    5.5495   -2.9317    2.3743 H   0  0  0  0  0  0
    3.0582   -4.7387    2.2389 H   0  0  0  0  0  0
    3.1577   -2.9719    1.9310 H   0  0  0  0  0  0
    3.1827   -4.8437   -0.1160 H   0  0  0  0  0  0
    4.0223   -3.2600   -0.2326 H   0  0  0  0  0  0
    5.2086   -5.9210   -0.1671 H   0  0  0  0  0  0
    6.0483   -4.3372   -0.2821 H   0  0  0  0  0  0
    6.8435   -4.9324    1.8818 H   0  0  0  0  0  0
    5.4403   -6.0060    2.2064 H   0  0  0  0  0  0
    6.5122   -1.3564    2.1655 H   0  0  0  0  0  0
    6.7820   -0.8192   -0.1481 H   0  0  0  0  0  0
    8.7755    2.6201    0.9738 H   0  0  0  0  0  0
    6.0377    0.7186   -1.7185 H   0  0  0  0  0  0
    6.3683    2.4815   -1.8169 H   0  0  0  0  0  0
    7.4358    0.2926   -3.6721 H   0  0  0  0  0  0
    6.2541    1.5831   -4.0784 H   0  0  0  0  0  0
    8.4614    2.0792   -4.9165 H   0  0  0  0  0  0
    9.7280    0.8680   -3.2460 H   0  0  0  0  0  0
   10.2407    2.5864   -3.3489 H   0  0  0  0  0  0
    8.9900    3.1415   -1.3483 H   0  0  0  0  0  0
   10.0426    1.7269   -1.0051 H   0  0  0  0  0  0
    7.9405    3.2617   -3.6688 H   0  0  0  0  0  0
  1  2  1  0  0  0
  1 34  1  0  0  0
  1 35  1  0  0  0
  1 36  1  0  0  0
  2 12  2  0  0  0
  2  3  1  0  0  0
  3  8  2  0  0  0
  3  4  1  0  0  0
  4  5  2  0  0  0
  4 37  1  0  0  0
  5  6  1  0  0  0
  6  7  2  0  0  0
  6 21  1  0  0  0
  7  8  1  0  0  0
  8  9  1  0  0  0
  9 10  1  0  0  0
  9 16  1  0  0  0
 10 11  2  0  0  0
 10 12  1  0  0  0
 12 13  1  0  0  0
 13 14  2  0  0  0
 13 15  1  0  0  0
 15 38  1  0  0  0
 15 39  1  0  0  0
 15 40  1  0  0  0
 16 20  1  0  0  0
 16 17  1  0  0  0
 16 41  1  0  0  0
 17 18  1  0  0  0
 17 42  1  0  0  0
 17 43  1  0  0  0
 18 19  1  0  0  0
 18 44  1  0  0  0
 18 45  1  0  0  0
 19 20  1  0  0  0
 19 46  1  0  0  0
 19 47  1  0  0  0
 20 48  1  0  0  0
 20 49  1  0  0  0
 21 22  2  0  0  0
 22 23  1  0  0  0
 22 27  1  0  0  0
 23 24  2  0  0  0
 23 50  1  0  0  0
 24 25  1  0  0  0
 24 51  1  0  0  0
 25 26  2  0  0  0
 25 28  1  0  0  0
 26 27  1  0  0  0
 26 52  1  0  0  0
 28 33  1  0  0  0
 28 29  1  0  0  0
 29 30  1  0  0  0
 29 53  1  0  0  0
 29 54  1  0  0  0
 30 31  1  0  0  0
 30 55  1  0  0  0
 30 56  1  0  0  0
 31 32  1  0  0  0
 31 57  1  0  0  0
 31 62  1  0  0  0
 32 33  1  0  0  0
 32 58  1  0  0  0
 32 59  1  0  0  0
 33 60  1  0  0  0
 33 61  1  0  0  0
M  CHG  2  27  -1  31   1
M  END
> <s_m_source_file>
/Users/andrea/Development/mcce-charges/epik_inhibitors/output/Palbociclib/Palbociclib-input.mol2

> <i_m_source_file_index>
1

> <r_epik_Ionization_Penalty>
  8.7799

> <r_epik_Ionization_Penalty_Charging>
  1.5822

> <r_epik_Ionization_Penalty_Neutral>
  7.1977

> <r_epik_State_Penalty>
 10.2828

> <i_epik_Tot_Q>
0

> <s_epik_Chemistry_Notes>
This compound has an imine and may undergo hydrolysis.

$$$$
6-acetyl-8-cyclopentyl-5-methyl-2-[(5-piperazin-1-yl-2-pyridyl)amino]pyrido[2,3-d]pyrimidin-7-one
                    3D
 Structure written by MMmdl.
 62 66  0  0  1  0            999 V2000
    8.4304    2.0117   10.2019 C   0  0  0  0  0  0
    8.8647    2.6496    8.9024 C   0  0  0  0  0  0
    8.4582    1.9456    7.6649 C   0  0  0  0  0  0
    7.7716    0.7333    7.6489 C   0  0  0  0  0  0
    7.3868    0.0770    6.5337 N   0  0  0  0  0  0
    7.7181    0.6816    5.3870 C   0  0  0  0  0  0
    8.3815    1.8420    5.2587 N   0  0  0  0  0  0
    8.7502    2.4638    6.4091 C   0  0  0  0  0  0
    9.4684    3.6884    6.3241 N   0  0  0  0  0  0
    9.9022    4.3801    7.4473 C   0  0  0  0  0  0
   10.5383    5.4347    7.3966 O   0  0  0  0  0  0
    9.5692    3.7953    8.7913 C   0  0  0  0  0  0
   10.0403    4.5147    9.9932 C   0  0  0  0  0  0
    9.2329    4.9264   10.8198 O   0  0  0  0  0  0
   11.5212    4.7052   10.1551 C   0  0  0  0  0  0
    9.7526    4.2009    4.9957 C   0  0  0  0  0  0
   11.2379    4.4531    4.7664 C   0  0  0  0  0  0
   11.2633    5.3758    3.5507 C   0  0  0  0  0  0
    9.9145    6.1007    3.5416 C   0  0  0  0  0  0
    9.1470    5.5780    4.7531 C   0  0  0  0  0  0
    7.3343    0.0355    4.1922 N   0  0  0  0  0  0
    7.5051    0.3638    2.8341 C   0  0  0  0  0  0
    6.9879   -0.5181    1.8990 C   0  0  0  0  0  0
    7.1448   -0.2057    0.5532 C   0  0  0  0  0  0
    7.8094    0.9601    0.1889 C   0  0  0  0  0  0
    8.2920    1.7746    1.2005 C   0  0  0  0  0  0
    8.1555    1.5062    2.5184 N   0  5  0  0  0  0
    7.9853    1.2998   -1.1572 N   0  0  0  0  0  0
    6.7863    1.4784   -1.9874 C   0  0  0  0  0  0
    7.1339    1.3305   -3.4682 C   0  0  0  0  0  0
    8.2327    2.2167   -3.8494 N   0  3  0  0  0  0
    9.4240    1.9086   -3.0600 C   0  0  0  0  0  0
    9.1616    2.0765   -1.5635 C   0  0  0  0  0  0
    7.8726    1.0879    9.9885 H   0  0  0  0  0  0
    7.7854    2.7099   10.7555 H   0  0  0  0  0  0
    9.3172    1.7730   10.8075 H   0  0  0  0  0  0
    7.4927    0.2145    8.5609 H   0  0  0  0  0  0
   11.7206    5.2527   11.0881 H   0  0  0  0  0  0
   11.9123    5.2793    9.3022 H   0  0  0  0  0  0
   12.0151    3.7231   10.1934 H   0  0  0  0  0  0
    9.3241    3.3970    4.3792 H   0  0  0  0  0  0
   11.6714    4.9272    5.6594 H   0  0  0  0  0  0
   11.7470    3.4969    4.5753 H   0  0  0  0  0  0
   12.0961    6.0878    3.6482 H   0  0  0  0  0  0
   11.3982    4.7764    2.6383 H   0  0  0  0  0  0
   10.0808    7.1856    3.6146 H   0  0  0  0  0  0
    9.3824    5.8734    2.6061 H   0  0  0  0  0  0
    8.0703    5.4749    4.5524 H   0  0  0  0  0  0
    9.2953    6.2060    5.6439 H   0  0  0  0  0  0
    6.5122   -1.3564    2.1655 H   0  0  0  0  0  0
    6.7820   -0.8192   -0.1481 H   0  0  0  0  0  0
    8.7755    2.6201    0.9738 H   0  0  0  0  0  0
    6.0377    0.7186   -1.7185 H   0  0  0  0  0  0
    6.3683    2.4815   -1.8169 H   0  0  0  0  0  0
    7.4358    0.2926   -3.6721 H   0  0  0  0  0  0
    6.2541    1.5831   -4.0784 H   0  0  0  0  0  0
    8.4614    2.0792   -4.9165 H   0  0  0  0  0  0
    9.7280    0.8680   -3.2460 H   0  0  0  0  0  0
   10.2407    2.5864   -3.3489 H   0  0  0  0  0  0
    8.9900    3.1415   -1.3483 H   0  0  0  0  0  0
   10.0426    1.7269   -1.0051 H   0  0  0  0  0  0
    7.9405    3.2617   -3.6688 H   0  0  0  0  0  0
  1  2  1  0  0  0
  1 34  1  0  0  0
  1 35  1  0  0  0
  1 36  1  0  0  0
  2 12  2  0  0  0
  2  3  1  0  0  0
  3  8  2  0  0  0
  3  4  1  0  0  0
  4  5  2  0  0  0
  4 37  1  0  0  0
  5  6  1  0  0  0
  6  7  2  0  0  0
  6 21  1  0  0  0
  7  8  1  0  0  0
  8  9  1  0  0  0
  9 10  1  0  0  0
  9 16  1  0  0  0
 10 11  2  0  0  0
 10 12  1  0  0  0
 12 13  1  0  0  0
 13 14  2  0  0  0
 13 15  1  0  0  0
 15 38  1  0  0  0
 15 39  1  0  0  0
 15 40  1  0  0  0
 16 20  1  0  0  0
 16 17  1  0  0  0
 16 41  1  0  0  0
 17 18  1  0  0  0
 17 42  1  0  0  0
 17 43  1  0  0  0
 18 19  1  0  0  0
 18 44  1  0  0  0
 18 45  1  0  0  0
 19 20  1  0  0  0
 19 46  1  0  0  0
 19 47  1  0  0  0
 20 48  1  0  0  0
 20 49  1  0  0  0
 21 22  2  0  0  0
 22 23  1  0  0  0
 22 27  1  0  0  0
 23 24  2  0  0  0
 23 50  1  0  0  0
 24 25  1  0  0  0
 24 51  1  0  0  0
 25 26  2  0  0  0
 25 28  1  0  0  0
 26 27  1  0  0  0
 26 52  1  0  0  0
 28 33  1  0  0  0
 28 29  1  0  0  0
 29 30  1  0  0  0
 29 53  1  0  0  0
 29 54  1  0  0  0
 30 31  1  0  0  0
 30 55  1  0  0  0
 30 56  1  0  0  0
 31 32  1  0  0  0
 31 57  1  0  0  0
 31 62  1  0  0  0
 32 33  1  0  0  0
 32 58  1  0  0  0
 32 59  1  0  0  0
 33 60  1  0  0  0
 33 61  1  0  0  0
M  CHG  2  27  -1  31   1
M  END
> <s_m_source_file>
/Users/andrea/Development/mcce-charges/epik_inhibitors/output/Palbociclib/Palbociclib-input.mol2

> <i_m_source_file_index>
1

> <r_epik_Ionization_Penalty>
  8.7799

> <r_epik_Ionization_Penalty_Charging>
  1.5822

> <r_epik_Ionization_Penalty_Neutral>
  7.1977

> <r_epik_State_Penalty>
 10.2828

> <i_epik_Tot_Q>
0

> <s_epik_Chemistry_Notes>
This compound has an imine and may undergo hydrolysis.

$$$$
6-acetyl-8-cyclopentyl-5-methyl-2-[(5-piperazin-1-yl-2-pyridyl)amino]pyrido[2,3-d]pyrimidin-7-one
                    3D
 Structure written by MMmdl.
 63 67  0  0  1  0            999 V2000
    8.4256    2.0145   10.2019 C   0  0  0  0  0  0
    8.8610    2.6517    8.9024 C   0  0  0  0  0  0
    8.4547    1.9476    7.6649 C   0  0  0  0  0  0
    7.7673    0.7358    7.6490 C   0  0  0  0  0  0
    7.3827    0.0794    6.5338 N   0  0  0  0  0  0
    7.7150    0.6834    5.3870 C   0  0  0  0  0  0
    8.3793    1.8433    5.2587 N   0  0  0  0  0  0
    8.7478    2.4652    6.4091 C   0  0  0  0  0  0
    9.4669    3.6893    6.3241 N   0  0  0  0  0  0
    9.9005    4.3810    7.4473 C   0  0  0  0  0  0
   10.5374    5.4352    7.3967 O   0  0  0  0  0  0
    9.5664    3.7969    8.7913 C   0  0  0  0  0  0
   10.0373    4.5164    9.9933 C   0  0  0  0  0  0
    9.2297    4.9289   10.8193 O   0  0  0  0  0  0
   11.5182    4.7059   10.1559 C   0  0  0  0  0  0
    9.7522    4.2011    4.9957 C   0  0  0  0  0  0
   11.2378    4.4522    4.7672 C   0  0  0  0  0  0
   11.2645    5.3745    3.5512 C   0  0  0  0  0  0
    9.9162    6.1003    3.5411 C   0  0  0  0  0  0
    9.1476    5.5786    4.7523 C   0  0  0  0  0  0
    7.3314    0.0371    4.1922 N   0  3  0  0  0  0
    7.5032    0.3649    2.8341 C   0  0  0  0  0  0
    6.9874   -0.5178    1.8990 C   0  0  0  0  0  0
    7.1492   -0.2082    0.5532 C   0  0  0  0  0  0
    7.8126    0.9582    0.1889 C   0  0  0  0  0  0
    8.2898    1.7759    1.2005 C   0  0  0  0  0  0
    8.1532    1.5075    2.5184 N   0  0  0  0  0  0
    7.9910    1.2966   -1.1573 N   0  0  0  0  0  0
    6.7936    1.4718   -1.9905 C   0  0  0  0  0  0
    7.1449    1.3227   -3.4703 C   0  0  0  0  0  0
    8.2430    2.2104   -3.8501 N   0  0  0  0  0  0
    9.4330    1.9055   -3.0575 C   0  0  0  0  0  0
    9.1668    2.0748   -1.5619 C   0  0  0  0  0  0
    7.8673    1.0911    9.9885 H   0  0  0  0  0  0
    7.7808    2.7133   10.7549 H   0  0  0  0  0  0
    9.3119    1.7754   10.8080 H   0  0  0  0  0  0
    7.4875    0.2175    8.5610 H   0  0  0  0  0  0
   11.7175    5.2535   11.0888 H   0  0  0  0  0  0
   11.9103    5.2795    9.3031 H   0  0  0  0  0  0
   12.0115    3.7235   10.1949 H   0  0  0  0  0  0
    9.3234    3.3973    4.3792 H   0  0  0  0  0  0
   11.6711    4.9263    5.6602 H   0  0  0  0  0  0
   11.7463    3.4956    4.5767 H   0  0  0  0  0  0
   12.0977    6.0860    3.6489 H   0  0  0  0  0  0
   11.3995    4.7748    2.6390 H   0  0  0  0  0  0
   10.0832    7.1851    3.6138 H   0  0  0  0  0  0
    9.3845    5.8731    2.6053 H   0  0  0  0  0  0
    8.0710    5.4761    4.5510 H   0  0  0  0  0  0
    9.2959    6.2068    5.6430 H   0  0  0  0  0  0
    6.2575   -0.0359    4.4187 H   0  0  0  0  0  0
    6.5109   -1.3557    2.1655 H   0  0  0  0  0  0
    6.7893   -0.8234   -0.1482 H   0  0  0  0  0  0
    8.7716    2.6224    0.9739 H   0  0  0  0  0  0
    6.0458    0.7110   -1.7223 H   0  0  0  0  0  0
    6.3733    2.4743   -1.8223 H   0  0  0  0  0  0
    7.4492    0.2850   -3.6721 H   0  0  0  0  0  0
    6.2661    1.5728   -4.0829 H   0  0  0  0  0  0
    8.4745    2.0718   -4.9165 H   0  0  0  0  0  0
    9.7394    0.8652   -3.2414 H   0  0  0  0  0  0
   10.2492    2.5845   -3.3454 H   0  0  0  0  0  0
    8.9928    3.1398   -1.3485 H   0  0  0  0  0  0
   10.0471    1.7277   -1.0010 H   0  0  0  0  0  0
    7.8165   -0.9279    4.4007 H   0  0  0  0  0  0
  1  2  1  0  0  0
  1 34  1  0  0  0
  1 35  1  0  0  0
  1 36  1  0  0  0
  2 12  2  0  0  0
  2  3  1  0  0  0
  3  8  2  0  0  0
  3  4  1  0  0  0
  4  5  2  0  0  0
  4 37  1  0  0  0
  5  6  1  0  0  0
  6  7  2  0  0  0
  6 21  1  0  0  0
  7  8  1  0  0  0
  8  9  1  0  0  0
  9 10  1  0  0  0
  9 16  1  0  0  0
 10 11  2  0  0  0
 10 12  1  0  0  0
 12 13  1  0  0  0
 13 14  2  0  0  0
 13 15  1  0  0  0
 15 38  1  0  0  0
 15 39  1  0  0  0
 15 40  1  0  0  0
 16 20  1  0  0  0
 16 17  1  0  0  0
 16 41  1  0  0  0
 17 18  1  0  0  0
 17 42  1  0  0  0
 17 43  1  0  0  0
 18 19  1  0  0  0
 18 44  1  0  0  0
 18 45  1  0  0  0
 19 20  1  0  0  0
 19 46  1  0  0  0
 19 47  1  0  0  0
 20 48  1  0  0  0
 20 49  1  0  0  0
 21 22  1  0  0  0
 21 63  1  0  0  0
 21 50  1  0  0  0
 22 27  2  0  0  0
 22 23  1  0  0  0
 23 24  2  0  0  0
 23 51  1  0  0  0
 24 52  1  0  0  0
 24 25  1  0  0  0
 25 28  1  0  0  0
 25 26  2  0  0  0
 26 53  1  0  0  0
 26 27  1  0  0  0
 28 33  1  0  0  0
 28 29  1  0  0  0
 29 30  1  0  0  0
 29 54  1  0  0  0
 29 55  1  0  0  0
 30 31  1  0  0  0
 30 56  1  0  0  0
 30 57  1  0  0  0
 31 32  1  0  0  0
 31 58  1  0  0  0
 32 33  1  0  0  0
 32 59  1  0  0  0
 32 60  1  0  0  0
 33 61  1  0  0  0
 33 62  1  0  0  0
M  CHG  1  21   1
M  END
> <s_m_source_file>
/Users/andrea/Development/mcce-charges/epik_inhibitors/output/Palbociclib/Palbociclib-input.mol2

> <i_m_source_file_index>
1

> <r_epik_Ionization_Penalty>
 11.5949

> <r_epik_Ionization_Penalty_Charging>
  9.6912

> <r_epik_Ionization_Penalty_Neutral>
  1.9037

> <r_epik_State_Penalty>
 11.3854

> <i_epik_Tot_Q>
1

$$$$
6-acetyl-8-cyclopentyl-5-methyl-2-[(5-piperazin-1-yl-2-pyridyl)amino]pyrido[2,3-d]pyrimidin-7-one
                    3D
 Structure written by MMmdl.
 64 68  0  0  1  0            999 V2000
    8.4256    2.0145   10.2019 C   0  0  0  0  0  0
    8.8610    2.6517    8.9024 C   0  0  0  0  0  0
    8.4547    1.9476    7.6649 C   0  0  0  0  0  0
    7.7673    0.7358    7.6490 C   0  0  0  0  0  0
    7.3827    0.0794    6.5338 N   0  3  0  0  0  0
    7.7150    0.6834    5.3870 C   0  0  0  0  0  0
    8.3793    1.8433    5.2587 N   0  0  0  0  0  0
    8.7478    2.4652    6.4091 C   0  0  0  0  0  0
    9.4669    3.6893    6.3241 N   0  0  0  0  0  0
    9.9005    4.3810    7.4473 C   0  0  0  0  0  0
   10.5374    5.4352    7.3967 O   0  0  0  0  0  0
    9.5664    3.7969    8.7913 C   0  0  0  0  0  0
   10.0373    4.5164    9.9933 C   0  0  0  0  0  0
    9.2297    4.9289   10.8193 O   0  0  0  0  0  0
   11.5182    4.7059   10.1559 C   0  0  0  0  0  0
    9.7522    4.2011    4.9957 C   0  0  0  0  0  0
   11.2378    4.4522    4.7672 C   0  0  0  0  0  0
   11.2645    5.3745    3.5512 C   0  0  0  0  0  0
    9.9162    6.1003    3.5411 C   0  0  0  0  0  0
    9.1476    5.5786    4.7523 C   0  0  0  0  0  0
    7.3314    0.0371    4.1922 N   0  0  0  0  0  0
    7.5032    0.3649    2.8341 C   0  0  0  0  0  0
    6.9859   -0.5170    1.8990 C   0  0  0  0  0  0
    7.1462   -0.2065    0.5532 C   0  0  0  0  0  0
    7.8095    0.9600    0.1889 C   0  0  0  0  0  0
    8.2898    1.7759    1.2005 C   0  0  0  0  0  0
    8.1532    1.5075    2.5184 N   0  0  0  0  0  0
    7.9854    1.2998   -1.1572 N   0  0  0  0  0  0
    6.7864    1.4755   -1.9881 C   0  0  0  0  0  0
    7.1351    1.3280   -3.4687 C   0  0  0  0  0  0
    8.2322    2.2165   -3.8495 N   0  3  0  0  0  0
    9.4237    1.9112   -3.0594 C   0  0  0  0  0  0
    9.1602    2.0789   -1.5631 C   0  0  0  0  0  0
    7.8673    1.0911    9.9885 H   0  0  0  0  0  0
    7.7808    2.7133   10.7549 H   0  0  0  0  0  0
    9.3119    1.7754   10.8080 H   0  0  0  0  0  0
    7.4875    0.2175    8.5610 H   0  0  0  0  0  0
   11.7175    5.2535   11.0888 H   0  0  0  0  0  0
   11.9103    5.2795    9.3031 H   0  0  0  0  0  0
   12.0115    3.7235   10.1949 H   0  0  0  0  0  0
    9.3234    3.3973    4.3792 H   0  0  0  0  0  0
   11.6711    4.9263    5.6602 H   0  0  0  0  0  0
   11.7463    3.4956    4.5767 H   0  0  0  0  0  0
   12.0977    6.0860    3.6489 H   0  0  0  0  0  0
   11.3995    4.7748    2.6390 H   0  0  0  0  0  0
   10.0832    7.1851    3.6138 H   0  0  0  0  0  0
    9.3845    5.8731    2.6053 H   0  0  0  0  0  0
    8.0710    5.4761    4.5510 H   0  0  0  0  0  0
    9.2959    6.2068    5.6430 H   0  0  0  0  0  0
    6.7859   -0.9172    4.2338 H   0  0  0  0  0  0
    6.4691   -1.4249    2.1922 H   0  0  0  0  0  0
    6.7514   -0.8795   -0.2031 H   0  0  0  0  0  0
    8.8157    2.6997    0.9786 H   0  0  0  0  0  0
    6.0393    0.7142   -1.7194 H   0  0  0  0  0  0
    6.3661    2.4777   -1.8181 H   0  0  0  0  0  0
    7.4394    0.2907   -3.6721 H   0  0  0  0  0  0
    6.2551    1.5784   -4.0794 H   0  0  0  0  0  0
    8.4618    2.0791   -4.9165 H   0  0  0  0  0  0
    9.7301    0.8712   -3.2450 H   0  0  0  0  0  0
   10.2391    2.5907   -3.3481 H   0  0  0  0  0  0
    8.9861    3.1436   -1.3483 H   0  0  0  0  0  0
   10.0416    1.7314   -1.0042 H   0  0  0  0  0  0
    7.9376    3.2609   -3.6694 H   0  0  0  0  0  0
    6.8408   -0.8743    6.6162 H   0  0  0  0  0  0
  1  2  1  0  0  0
  1 34  1  0  0  0
  1 35  1  0  0  0
  1 36  1  0  0  0
  2 12  2  0  0  0
  2  3  1  0  0  0
  3  8  2  0  0  0
  3  4  1  0  0  0
  4  5  2  0  0  0
  4 37  1  0  0  0
  5  6  1  0  0  0
  5 64  1  0  0  0
  6  7  2  0  0  0
  6 21  1  0  0  0
  7  8  1  0  0  0
  8  9  1  0  0  0
  9 10  1  0  0  0
  9 16  1  0  0  0
 10 11  2  0  0  0
 10 12  1  0  0  0
 12 13  1  0  0  0
 13 14  2  0  0  0
 13 15  1  0  0  0
 15 38  1  0  0  0
 15 39  1  0  0  0
 15 40  1  0  0  0
 16 20  1  0  0  0
 16 17  1  0  0  0
 16 41  1  0  0  0
 17 18  1  0  0  0
 17 42  1  0  0  0
 17 43  1  0  0  0
 18 19  1  0  0  0
 18 44  1  0  0  0
 18 45  1  0  0  0
 19 20  1  0  0  0
 19 46  1  0  0  0
 19 47  1  0  0  0
 20 48  1  0  0  0
 20 49  1  0  0  0
 21 22  1  0  0  0
 21 50  1  0  0  0
 22 27  2  0  0  0
 22 23  1  0  0  0
 23 24  2  0  0  0
 23 51  1  0  0  0
 24 25  1  0  0  0
 24 52  1  0  0  0
 25 26  2  0  0  0
 25 28  1  0  0  0
 26 27  1  0  0  0
 26 53  1  0  0  0
 28 33  1  0  0  0
 28 29  1  0  0  0
 29 30  1  0  0  0
 29 54  1  0  0  0
 29 55  1  0  0  0
 30 31  1  0  0  0
 30 56  1  0  0  0
 30 57  1  0  0  0
 31 32  1  0  0  0
 31 58  1  0  0  0
 31 63  1  0  0  0
 32 33  1  0  0  0
 32 59  1  0  0  0
 32 60  1  0  0  0
 33 61  1  0  0  0
 33 62  1  0  0  0
M  CHG  2   5   1  31   1
M  END
> <s_m_source_file>
/Users/andrea/Development/mcce-charges/epik_inhibitors/output/Palbociclib/Palbociclib-input.mol2

> <i_m_source_file_index>
1

> <r_epik_Ionization_Penalty>
  8.4263

> <r_epik_Ionization_Penalty_Charging>
  7.7924

> <r_epik_Ionization_Penalty_Neutral>
  0.6338

> <r_epik_State_Penalty>
 13.3194

> <i_epik_Tot_Q>
2

> <s_epik_Chemistry_Notes>
This compound has an imine and may undergo hydrolysis.

$$$$
6-acetyl-8-cyclopentyl-5-methyl-2-[(5-piperazin-1-yl-2-pyridyl)amino]pyrido[2,3-d]pyrimidin-7-one
                    3D
 Structure written by MMmdl.
 63 67  0  0  1  0            999 V2000
    8.4256    2.0145   10.2019 C   0  0  0  0  0  0
    8.8610    2.6517    8.9024 C   0  0  0  0  0  0
    8.4547    1.9476    7.6649 C   0  0  0  0  0  0
    7.7673    0.7358    7.6490 C   0  0  0  0  0  0
    7.3827    0.0794    6.5338 N   0  0  0  0  0  0
    7.7150    0.6834    5.3870 C   0  0  0  0  0  0
    8.3793    1.8433    5.2587 N   0  0  0  0  0  0
    8.7478    2.4652    6.4091 C   0  0  0  0  0  0
    9.4669    3.6893    6.3241 N   0  0  0  0  0  0
    9.9005    4.3810    7.4473 C   0  0  0  0  0  0
   10.5374    5.4352    7.3967 O   0  5  0  0  0  0
    9.5664    3.7969    8.7913 C   0  0  0  0  0  0
   10.0373    4.5164    9.9933 C   0  0  0  0  0  0
    9.2297    4.9289   10.8193 O   0  0  0  0  0  0
   11.5182    4.7059   10.1559 C   0  0  0  0  0  0
    9.7522    4.2011    4.9957 C   0  0  0  0  0  0
   11.2378    4.4522    4.7672 C   0  0  0  0  0  0
   11.2645    5.3745    3.5512 C   0  0  0  0  0  0
    9.9162    6.1003    3.5411 C   0  0  0  0  0  0
    9.1476    5.5786    4.7523 C   0  0  0  0  0  0
    7.3314    0.0371    4.1922 N   0  0  0  0  0  0
    7.5032    0.3649    2.8341 C   0  0  0  0  0  0
    6.9859   -0.5170    1.8990 C   0  0  0  0  0  0
    7.1462   -0.2065    0.5532 C   0  0  0  0  0  0
    7.8095    0.9600    0.1889 C   0  0  0  0  0  0
    8.2898    1.7759    1.2005 C   0  0  0  0  0  0
    8.1532    1.5075    2.5184 N   0  3  0  0  0  0
    7.9854    1.2998   -1.1572 N   0  0  0  0  0  0
    6.7864    1.4755   -1.9881 C   0  0  0  0  0  0
    7.1351    1.3280   -3.4687 C   0  0  0  0  0  0
    8.2322    2.2165   -3.8495 N   0  3  0  0  0  0
    9.4237    1.9112   -3.0594 C   0  0  0  0  0  0
    9.1602    2.0789   -1.5631 C   0  0  0  0  0  0
    7.8673    1.0911    9.9885 H   0  0  0  0  0  0
    7.7808    2.7133   10.7549 H   0  0  0  0  0  0
    9.3119    1.7754   10.8080 H   0  0  0  0  0  0
    7.4875    0.2175    8.5610 H   0  0  0  0  0  0
   11.7175    5.2535   11.0888 H   0  0  0  0  0  0
   11.9103    5.2795    9.3031 H   0  0  0  0  0  0
   12.0115    3.7235   10.1949 H   0  0  0  0  0  0
    9.3234    3.3973    4.3792 H   0  0  0  0  0  0
   11.6711    4.9263    5.6602 H   0  0  0  0  0  0
   11.7463    3.4956    4.5767 H   0  0  0  0  0  0
   12.0977    6.0860    3.6489 H   0  0  0  0  0  0
   11.3995    4.7748    2.6390 H   0  0  0  0  0  0
   10.0832    7.1851    3.6138 H   0  0  0  0  0  0
    9.3845    5.8731    2.6053 H   0  0  0  0  0  0
    8.0710    5.4761    4.5510 H   0  0  0  0  0  0
    9.2959    6.2068    5.6430 H   0  0  0  0  0  0
    6.4691   -1.4249    2.1922 H   0  0  0  0  0  0
    6.7514   -0.8795   -0.2031 H   0  0  0  0  0  0
    8.8157    2.6997    0.9786 H   0  0  0  0  0  0
    6.0393    0.7142   -1.7194 H   0  0  0  0  0  0
    6.3661    2.4777   -1.8181 H   0  0  0  0  0  0
    7.4394    0.2907   -3.6721 H   0  0  0  0  0  0
    6.2551    1.5784   -4.0794 H   0  0  0  0  0  0
    8.4618    2.0791   -4.9165 H   0  0  0  0  0  0
    9.7301    0.8712   -3.2450 H   0  0  0  0  0  0
   10.2391    2.5907   -3.3481 H   0  0  0  0  0  0
    8.9861    3.1436   -1.3483 H   0  0  0  0  0  0
   10.0416    1.7314   -1.0042 H   0  0  0  0  0  0
    7.9376    3.2609   -3.6694 H   0  0  0  0  0  0
    8.5372    2.1602    3.3162 H   0  0  0  0  0  0
  1  2  1  0  0  0
  1 34  1  0  0  0
  1 35  1  0  0  0
  1 36  1  0  0  0
  2 12  1  0  0  0
  2  3  2  0  0  0
  3  8  1  0  0  0
  3  4  1  0  0  0
  4  5  2  0  0  0
  4 37  1  0  0  0
  5  6  1  0  0  0
  6  7  1  0  0  0
  6 21  2  0  0  0
  7  8  2  0  0  0
  8  9  1  0  0  0
  9 10  1  0  0  0
  9 16  1  0  0  0
 10 11  1  0  0  0
 10 12  2  0  0  0
 12 13  1  0  0  0
 13 14  2  0  0  0
 13 15  1  0  0  0
 15 38  1  0  0  0
 15 39  1  0  0  0
 15 40  1  0  0  0
 16 20  1  0  0  0
 16 17  1  0  0  0
 16 41  1  0  0  0
 17 18  1  0  0  0
 17 42  1  0  0  0
 17 43  1  0  0  0
 18 19  1  0  0  0
 18 44  1  0  0  0
 18 45  1  0  0  0
 19 20  1  0  0  0
 19 46  1  0  0  0
 19 47  1  0  0  0
 20 48  1  0  0  0
 20 49  1  0  0  0
 21 22  1  0  0  0
 22 27  2  0  0  0
 22 23  1  0  0  0
 23 24  2  0  0  0
 23 50  1  0  0  0
 24 25  1  0  0  0
 24 51  1  0  0  0
 25 26  2  0  0  0
 25 28  1  0  0  0
 26 27  1  0  0  0
 26 52  1  0  0  0
 27 63  1  0  0  0
 28 33  1  0  0  0
 28 29  1  0  0  0
 29 30  1  0  0  0
 29 53  1  0  0  0
 29 54  1  0  0  0
 30 31  1  0  0  0
 30 55  1  0  0  0
 30 56  1  0  0  0
 31 32  1  0  0  0
 31 57  1  0  0  0
 31 62  1  0  0  0
 32 33  1  0  0  0
 32 58  1  0  0  0
 32 59  1  0  0  0
 33 60  1  0  0  0
 33 61  1  0  0  0
M  CHG  3  11  -1  27   1  31   1
M  END
> <s_m_source_file>
/Users/andrea/Development/mcce-charges/epik_inhibitors/output/Palbociclib/Palbociclib-input.mol2

> <i_m_source_file_index>
1

> <r_lp_tautomer_probability>
4.85973406205523e-06

> <r_epik_Ionization_Penalty>
  6.0774

> <r_epik_Ionization_Penalty_Charging>
  6.0774

> <r_epik_Ionization_Penalty_Neutral>
  0.0000

> <r_epik_State_Penalty>
 13.5925

> <i_epik_Tot_Q>
1

$$$$
