6-acetyl-8-cyclopentyl-5-methyl-2-[(5-piperazin-1-yl-2-pyridyl)amino]pyrido[2,3-d]pyrimidin-7-one
                    3D
 Structure written by MMmdl.
 63 67  0  0  1  0            999 V2000
    8.4256    2.0145   10.2019 C   0  0  0  0  0  0
    8.8610    2.6517    8.9024 C   0  0  0  0  0  0
    8.4547    1.9476    7.6649 C   0  0  0  0  0  0
    7.7673    0.7358    7.6490 C   0  0  0  0  0  0
    7.3827    0.0794    6.5338 N   0  0  0  0  0  0
    7.7150    0.6834    5.3870 C   0  0  0  0  0  0
    8.3793    1.8433    5.2587 N   0  0  0  0  0  0
    8.7478    2.4652    6.4091 C   0  0  0  0  0  0
    9.4669    3.6893    6.3241 N   0  0  0  0  0  0
    9.9005    4.3810    7.4473 C   0  0  0  0  0  0
   10.5374    5.4352    7.3967 O   0  0  0  0  0  0
    9.5664    3.7969    8.7913 C   0  0  0  0  0  0
   10.0373    4.5164    9.9933 C   0  0  0  0  0  0
    9.2297    4.9289   10.8193 O   0  0  0  0  0  0
   11.5183    4.7059   10.1559 C   0  0  0  0  0  0
    9.7522    4.2011    4.9957 C   0  0  0  0  0  0
   11.2378    4.4522    4.7672 C   0  0  0  0  0  0
   11.2645    5.3745    3.5512 C   0  0  0  0  0  0
    9.9162    6.1003    3.5411 C   0  0  0  0  0  0
    9.1476    5.5786    4.7523 C   0  0  0  0  0  0
    7.3314    0.0371    4.1922 N   0  0  0  0  0  0
    7.5032    0.3649    2.8341 C   0  0  0  0  0  0
    6.9859   -0.5170    1.8990 C   0  0  0  0  0  0
    7.1462   -0.2065    0.5532 C   0  0  0  0  0  0
    7.8095    0.9600    0.1889 C   0  0  0  0  0  0
    8.2898    1.7759    1.2005 C   0  0  0  0  0  0
    8.1532    1.5075    2.5184 N   0  0  0  0  0  0
    7.9854    1.2998   -1.1572 N   0  0  0  0  0  0
    6.7864    1.4755   -1.9881 C   0  0  0  0  0  0
    7.1351    1.3280   -3.4687 C   0  0  0  0  0  0
    8.2322    2.2165   -3.8495 N   0  3  0  0  0  0
    9.4237    1.9112   -3.0594 C   0  0  0  0  0  0
    9.1602    2.0789   -1.5631 C   0  0  0  0  0  0
    7.8673    1.0911    9.9885 H   0  0  0  0  0  0
    7.7808    2.7133   10.7549 H   0  0  0  0  0  0
    9.3119    1.7754   10.8080 H   0  0  0  0  0  0
    7.4875    0.2175    8.5610 H   0  0  0  0  0  0
   11.7176    5.2535   11.0888 H   0  0  0  0  0  0
   11.9104    5.2795    9.3031 H   0  0  0  0  0  0
   12.0115    3.7235   10.1949 H   0  0  0  0  0  0
    9.3234    3.3973    4.3792 H   0  0  0  0  0  0
   11.6711    4.9263    5.6602 H   0  0  0  0  0  0
   11.7463    3.4956    4.5767 H   0  0  0  0  0  0
   12.0977    6.0860    3.6489 H   0  0  0  0  0  0
   11.3995    4.7748    2.6390 H   0  0  0  0  0  0
   10.0832    7.1851    3.6138 H   0  0  0  0  0  0
    9.3845    5.8731    2.6053 H   0  0  0  0  0  0
    8.0710    5.4761    4.5510 H   0  0  0  0  0  0
    9.2959    6.2068    5.6430 H   0  0  0  0  0  0
    6.7859   -0.9172    4.2338 H   0  0  0  0  0  0
    6.4691   -1.4249    2.1922 H   0  0  0  0  0  0
    6.7514   -0.8795   -0.2031 H   0  0  0  0  0  0
    8.8157    2.6997    0.9786 H   0  0  0  0  0  0
    6.0393    0.7142   -1.7194 H   0  0  0  0  0  0
    6.3661    2.4777   -1.8181 H   0  0  0  0  0  0
    7.4394    0.2907   -3.6721 H   0  0  0  0  0  0
    6.2551    1.5784   -4.0794 H   0  0  0  0  0  0
    8.4618    2.0791   -4.9165 H   0  0  0  0  0  0
    9.7301    0.8712   -3.2450 H   0  0  0  0  0  0
   10.2391    2.5907   -3.3481 H   0  0  0  0  0  0
    8.9861    3.1436   -1.3483 H   0  0  0  0  0  0
   10.0416    1.7314   -1.0042 H   0  0  0  0  0  0
    7.9376    3.2609   -3.6694 H   0  0  0  0  0  0
  1  2  1  0  0  0
  1 34  1  0  0  0
  1 35  1  0  0  0
  1 36  1  0  0  0
  2 12  2  0  0  0
  2  3  1  0  0  0
  3  8  2  0  0  0
  3  4  1  0  0  0
  4  5  2  0  0  0
  4 37  1  0  0  0
  5  6  1  0  0  0
  6  7  2  0  0  0
  6 21  1  0  0  0
  7  8  1  0  0  0
  8  9  1  0  0  0
  9 10  1  0  0  0
  9 16  1  0  0  0
 10 11  2  0  0  0
 10 12  1  0  0  0
 12 13  1  0  0  0
 13 14  2  0  0  0
 13 15  1  0  0  0
 15 38  1  0  0  0
 15 39  1  0  0  0
 15 40  1  0  0  0
 16 20  1  0  0  0
 16 17  1  0  0  0
 16 41  1  0  0  0
 17 18  1  0  0  0
 17 42  1  0  0  0
 17 43  1  0  0  0
 18 19  1  0  0  0
 18 44  1  0  0  0
 18 45  1  0  0  0
 19 20  1  0  0  0
 19 46  1  0  0  0
 19 47  1  0  0  0
 20 48  1  0  0  0
 20 49  1  0  0  0
 21 22  1  0  0  0
 21 50  1  0  0  0
 22 27  2  0  0  0
 22 23  1  0  0  0
 23 24  2  0  0  0
 23 51  1  0  0  0
 24 25  1  0  0  0
 24 52  1  0  0  0
 25 26  2  0  0  0
 25 28  1  0  0  0
 26 27  1  0  0  0
 26 53  1  0  0  0
 28 33  1  0  0  0
 28 29  1  0  0  0
 29 30  1  0  0  0
 29 54  1  0  0  0
 29 55  1  0  0  0
 30 31  1  0  0  0
 30 56  1  0  0  0
 30 57  1  0  0  0
 31 32  1  0  0  0
 31 58  1  0  0  0
 31 63  1  0  0  0
 32 33  1  0  0  0
 32 59  1  0  0  0
 32 60  1  0  0  0
 33 61  1  0  0  0
 33 62  1  0  0  0
M  CHG  1  31   1
M  END
> <s_m_source_file>
/cbio/jclab/home/andrrizzi/epik_inhibitors/output/Palbociclib/Palbociclib-input.mol2

> <i_m_source_file_index>
1

> <r_lp_tautomer_probability>
0.999940280531876

> <r_epik_Ionization_Penalty>
  0.1984

> <r_epik_Ionization_Penalty_Charging>
  0.0243

> <r_epik_Ionization_Penalty_Neutral>
  0.1740

> <r_epik_State_Penalty>
  0.2563

> <i_epik_Tot_Q>
1

> <s_epik_Chemistry_Notes>
This compound has an imine and may undergo hydrolysis.

$$$$
6-acetyl-8-cyclopentyl-5-methyl-2-[(5-piperazin-1-yl-2-pyridyl)amino]pyrido[2,3-d]pyrimidin-7-one
                    3D
 Structure written by MMmdl.
 64 68  0  0  1  0            999 V2000
    8.4256    2.0145   10.2019 C   0  0  0  0  0  0
    8.8610    2.6517    8.9024 C   0  0  0  0  0  0
    8.4547    1.9476    7.6649 C   0  0  0  0  0  0
    7.7673    0.7358    7.6490 C   0  0  0  0  0  0
    7.3827    0.0794    6.5338 N   0  0  0  0  0  0
    7.7150    0.6834    5.3870 C   0  0  0  0  0  0
    8.3793    1.8433    5.2587 N   0  0  0  0  0  0
    8.7478    2.4652    6.4091 C   0  0  0  0  0  0
    9.4669    3.6893    6.3241 N   0  0  0  0  0  0
    9.9005    4.3810    7.4473 C   0  0  0  0  0  0
   10.5374    5.4352    7.3967 O   0  0  0  0  0  0
    9.5664    3.7969    8.7913 C   0  0  0  0  0  0
   10.0373    4.5164    9.9933 C   0  0  0  0  0  0
    9.2297    4.9289   10.8193 O   0  0  0  0  0  0
   11.5183    4.7059   10.1559 C   0  0  0  0  0  0
    9.7522    4.2011    4.9957 C   0  0  0  0  0  0
   11.2378    4.4522    4.7672 C   0  0  0  0  0  0
   11.2645    5.3745    3.5512 C   0  0  0  0  0  0
    9.9162    6.1003    3.5411 C   0  0  0  0  0  0
    9.1476    5.5786    4.7523 C   0  0  0  0  0  0
    7.3314    0.0371    4.1922 N   0  0  0  0  0  0
    7.5032    0.3649    2.8341 C   0  0  0  0  0  0
    6.9859   -0.5170    1.8990 C   0  0  0  0  0  0
    7.1462   -0.2065    0.5532 C   0  0  0  0  0  0
    7.8095    0.9600    0.1889 C   0  0  0  0  0  0
    8.2898    1.7759    1.2005 C   0  0  0  0  0  0
    8.1532    1.5075    2.5184 N   0  3  0  0  0  0
    7.9854    1.2998   -1.1572 N   0  0  0  0  0  0
    6.7864    1.4755   -1.9881 C   0  0  0  0  0  0
    7.1351    1.3280   -3.4687 C   0  0  0  0  0  0
    8.2322    2.2165   -3.8495 N   0  3  0  0  0  0
    9.4237    1.9112   -3.0594 C   0  0  0  0  0  0
    9.1602    2.0789   -1.5631 C   0  0  0  0  0  0
    7.8673    1.0911    9.9885 H   0  0  0  0  0  0
    7.7808    2.7133   10.7549 H   0  0  0  0  0  0
    9.3119    1.7754   10.8080 H   0  0  0  0  0  0
    7.4875    0.2175    8.5610 H   0  0  0  0  0  0
   11.7176    5.2535   11.0888 H   0  0  0  0  0  0
   11.9104    5.2795    9.3031 H   0  0  0  0  0  0
   12.0115    3.7235   10.1949 H   0  0  0  0  0  0
    9.3234    3.3973    4.3792 H   0  0  0  0  0  0
   11.6711    4.9263    5.6602 H   0  0  0  0  0  0
   11.7463    3.4956    4.5767 H   0  0  0  0  0  0
   12.0977    6.0860    3.6489 H   0  0  0  0  0  0
   11.3995    4.7748    2.6390 H   0  0  0  0  0  0
   10.0832    7.1851    3.6138 H   0  0  0  0  0  0
    9.3845    5.8731    2.6053 H   0  0  0  0  0  0
    8.0710    5.4761    4.5510 H   0  0  0  0  0  0
    9.2959    6.2068    5.6430 H   0  0  0  0  0  0
    6.7859   -0.9172    4.2338 H   0  0  0  0  0  0
    6.4691   -1.4249    2.1922 H   0  0  0  0  0  0
    6.7514   -0.8795   -0.2031 H   0  0  0  0  0  0
    8.8157    2.6997    0.9786 H   0  0  0  0  0  0
    6.0393    0.7142   -1.7194 H   0  0  0  0  0  0
    6.3661    2.4777   -1.8181 H   0  0  0  0  0  0
    7.4394    0.2907   -3.6721 H   0  0  0  0  0  0
    6.2551    1.5784   -4.0794 H   0  0  0  0  0  0
    8.4618    2.0791   -4.9165 H   0  0  0  0  0  0
    9.7301    0.8712   -3.2450 H   0  0  0  0  0  0
   10.2391    2.5907   -3.3481 H   0  0  0  0  0  0
    8.9861    3.1436   -1.3483 H   0  0  0  0  0  0
   10.0416    1.7314   -1.0042 H   0  0  0  0  0  0
    7.9376    3.2609   -3.6694 H   0  0  0  0  0  0
    8.5372    2.1602    3.3162 H   0  0  0  0  0  0
  1  2  1  0  0  0
  1 34  1  0  0  0
  1 35  1  0  0  0
  1 36  1  0  0  0
  2 12  2  0  0  0
  2  3  1  0  0  0
  3  8  2  0  0  0
  3  4  1  0  0  0
  4  5  2  0  0  0
  4 37  1  0  0  0
  5  6  1  0  0  0
  6  7  2  0  0  0
  6 21  1  0  0  0
  7  8  1  0  0  0
  8  9  1  0  0  0
  9 10  1  0  0  0
  9 16  1  0  0  0
 10 11  2  0  0  0
 10 12  1  0  0  0
 12 13  1  0  0  0
 13 14  2  0  0  0
 13 15  1  0  0  0
 15 38  1  0  0  0
 15 39  1  0  0  0
 15 40  1  0  0  0
 16 20  1  0  0  0
 16 17  1  0  0  0
 16 41  1  0  0  0
 17 18  1  0  0  0
 17 42  1  0  0  0
 17 43  1  0  0  0
 18 19  1  0  0  0
 18 44  1  0  0  0
 18 45  1  0  0  0
 19 20  1  0  0  0
 19 46  1  0  0  0
 19 47  1  0  0  0
 20 48  1  0  0  0
 20 49  1  0  0  0
 21 22  1  0  0  0
 21 50  1  0  0  0
 22 27  2  0  0  0
 22 23  1  0  0  0
 23 24  2  0  0  0
 23 51  1  0  0  0
 24 25  1  0  0  0
 24 52  1  0  0  0
 25 26  2  0  0  0
 25 28  1  0  0  0
 26 27  1  0  0  0
 26 53  1  0  0  0
 27 64  1  0  0  0
 28 33  1  0  0  0
 28 29  1  0  0  0
 29 30  1  0  0  0
 29 54  1  0  0  0
 29 55  1  0  0  0
 30 31  1  0  0  0
 30 56  1  0  0  0
 30 57  1  0  0  0
 31 32  1  0  0  0
 31 58  1  0  0  0
 31 63  1  0  0  0
 32 33  1  0  0  0
 32 59  1  0  0  0
 32 60  1  0  0  0
 33 61  1  0  0  0
 33 62  1  0  0  0
M  CHG  2  27   1  31   1
M  END
> <s_m_source_file>
/cbio/jclab/home/andrrizzi/epik_inhibitors/output/Palbociclib/Palbociclib-input.mol2

> <i_m_source_file_index>
1

> <r_lp_tautomer_probability>
0.999943852345196

> <r_epik_Ionization_Penalty>
  0.9091

> <r_epik_Ionization_Penalty_Charging>
  0.9091

> <r_epik_Ionization_Penalty_Neutral>
  0.0000

> <r_epik_State_Penalty>
  0.7639

> <i_epik_Tot_Q>
2

> <s_epik_Chemistry_Notes>
This compound has an imine and may undergo hydrolysis.

$$$$
6-acetyl-8-cyclopentyl-5-methyl-2-[(5-piperazin-1-yl-2-pyridyl)amino]pyrido[2,3-d]pyrimidin-7-one
                    3D
 Structure written by MMmdl.
 63 67  0  0  1  0            999 V2000
    8.4256    2.0145   10.2019 C   0  0  0  0  0  0
    8.8610    2.6517    8.9024 C   0  0  0  0  0  0
    8.4547    1.9476    7.6649 C   0  0  0  0  0  0
    7.7673    0.7358    7.6490 C   0  0  0  0  0  0
    7.3827    0.0794    6.5338 N   0  0  0  0  0  0
    7.7150    0.6834    5.3870 C   0  0  0  0  0  0
    8.3793    1.8433    5.2587 N   0  0  0  0  0  0
    8.7478    2.4652    6.4091 C   0  0  0  0  0  0
    9.4669    3.6893    6.3241 N   0  0  0  0  0  0
    9.9005    4.3810    7.4473 C   0  0  0  0  0  0
   10.5374    5.4352    7.3967 O   0  0  0  0  0  0
    9.5664    3.7969    8.7913 C   0  0  0  0  0  0
   10.0373    4.5164    9.9933 C   0  0  0  0  0  0
    9.2297    4.9289   10.8193 O   0  0  0  0  0  0
   11.5183    4.7059   10.1559 C   0  0  0  0  0  0
    9.7522    4.2011    4.9957 C   0  0  0  0  0  0
   11.2378    4.4522    4.7672 C   0  0  0  0  0  0
   11.2645    5.3745    3.5512 C   0  0  0  0  0  0
    9.9162    6.1003    3.5411 C   0  0  0  0  0  0
    9.1476    5.5786    4.7523 C   0  0  0  0  0  0
    7.3314    0.0371    4.1922 N   0  0  0  0  0  0
    7.5032    0.3649    2.8341 C   0  0  0  0  0  0
    6.9859   -0.5170    1.8990 C   0  0  0  0  0  0
    7.1462   -0.2065    0.5532 C   0  0  0  0  0  0
    7.8095    0.9600    0.1889 C   0  0  0  0  0  0
    8.2898    1.7759    1.2005 C   0  0  0  0  0  0
    8.1532    1.5075    2.5184 N   0  3  0  0  0  0
    7.9854    1.2998   -1.1572 N   0  0  0  0  0  0
    6.7864    1.4755   -1.9881 C   0  0  0  0  0  0
    7.1351    1.3280   -3.4687 C   0  0  0  0  0  0
    8.2322    2.2165   -3.8495 N   0  0  0  0  0  0
    9.4237    1.9112   -3.0594 C   0  0  0  0  0  0
    9.1602    2.0789   -1.5631 C   0  0  0  0  0  0
    7.8673    1.0911    9.9885 H   0  0  0  0  0  0
    7.7808    2.7133   10.7549 H   0  0  0  0  0  0
    9.3119    1.7754   10.8080 H   0  0  0  0  0  0
    7.4875    0.2175    8.5610 H   0  0  0  0  0  0
   11.7176    5.2535   11.0888 H   0  0  0  0  0  0
   11.9104    5.2795    9.3031 H   0  0  0  0  0  0
   12.0115    3.7235   10.1949 H   0  0  0  0  0  0
    9.3234    3.3973    4.3792 H   0  0  0  0  0  0
   11.6711    4.9263    5.6602 H   0  0  0  0  0  0
   11.7463    3.4956    4.5767 H   0  0  0  0  0  0
   12.0977    6.0860    3.6489 H   0  0  0  0  0  0
   11.3995    4.7748    2.6390 H   0  0  0  0  0  0
   10.0832    7.1851    3.6138 H   0  0  0  0  0  0
    9.3845    5.8731    2.6053 H   0  0  0  0  0  0
    8.0710    5.4761    4.5510 H   0  0  0  0  0  0
    9.2959    6.2068    5.6430 H   0  0  0  0  0  0
    6.7859   -0.9172    4.2338 H   0  0  0  0  0  0
    6.4691   -1.4249    2.1922 H   0  0  0  0  0  0
    6.7514   -0.8795   -0.2031 H   0  0  0  0  0  0
    8.8157    2.6997    0.9786 H   0  0  0  0  0  0
    6.0393    0.7142   -1.7194 H   0  0  0  0  0  0
    6.3661    2.4777   -1.8181 H   0  0  0  0  0  0
    7.4394    0.2907   -3.6721 H   0  0  0  0  0  0
    6.2551    1.5784   -4.0794 H   0  0  0  0  0  0
    8.4618    2.0791   -4.9165 H   0  0  0  0  0  0
    9.7301    0.8712   -3.2450 H   0  0  0  0  0  0
   10.2391    2.5907   -3.3481 H   0  0  0  0  0  0
    8.9861    3.1436   -1.3483 H   0  0  0  0  0  0
   10.0416    1.7314   -1.0042 H   0  0  0  0  0  0
    8.5372    2.1602    3.3162 H   0  0  0  0  0  0
  1  2  1  0  0  0
  1 34  1  0  0  0
  1 35  1  0  0  0
  1 36  1  0  0  0
  2 12  2  0  0  0
  2  3  1  0  0  0
  3  8  2  0  0  0
  3  4  1  0  0  0
  4  5  2  0  0  0
  4 37  1  0  0  0
  5  6  1  0  0  0
  6  7  2  0  0  0
  6 21  1  0  0  0
  7  8  1  0  0  0
  8  9  1  0  0  0
  9 10  1  0  0  0
  9 16  1  0  0  0
 10 11  2  0  0  0
 10 12  1  0  0  0
 12 13  1  0  0  0
 13 14  2  0  0  0
 13 15  1  0  0  0
 15 38  1  0  0  0
 15 39  1  0  0  0
 15 40  1  0  0  0
 16 20  1  0  0  0
 16 17  1  0  0  0
 16 41  1  0  0  0
 17 18  1  0  0  0
 17 42  1  0  0  0
 17 43  1  0  0  0
 18 19  1  0  0  0
 18 44  1  0  0  0
 18 45  1  0  0  0
 19 20  1  0  0  0
 19 46  1  0  0  0
 19 47  1  0  0  0
 20 48  1  0  0  0
 20 49  1  0  0  0
 21 22  1  0  0  0
 21 50  1  0  0  0
 22 27  2  0  0  0
 22 23  1  0  0  0
 23 24  2  0  0  0
 23 51  1  0  0  0
 24 25  1  0  0  0
 24 52  1  0  0  0
 25 26  2  0  0  0
 25 28  1  0  0  0
 26 27  1  0  0  0
 26 53  1  0  0  0
 27 63  1  0  0  0
 28 33  1  0  0  0
 28 29  1  0  0  0
 29 30  1  0  0  0
 29 54  1  0  0  0
 29 55  1  0  0  0
 30 31  1  0  0  0
 30 56  1  0  0  0
 30 57  1  0  0  0
 31 32  1  0  0  0
 31 58  1  0  0  0
 32 33  1  0  0  0
 32 59  1  0  0  0
 32 60  1  0  0  0
 33 61  1  0  0  0
 33 62  1  0  0  0
M  CHG  1  27   1
M  END
> <s_m_source_file>
/cbio/jclab/home/andrrizzi/epik_inhibitors/output/Palbociclib/Palbociclib-input.mol2

> <i_m_source_file_index>
1

> <r_epik_Ionization_Penalty>
  1.2350

> <r_epik_Ionization_Penalty_Charging>
  0.1224

> <r_epik_Ionization_Penalty_Neutral>
  1.1126

> <r_epik_State_Penalty>
  1.6745

> <i_epik_Tot_Q>
1

> <s_epik_Chemistry_Notes>
This compound has an imine and may undergo hydrolysis.

$$$$
6-acetyl-8-cyclopentyl-5-methyl-2-[(5-piperazin-1-yl-2-pyridyl)amino]pyrido[2,3-d]pyrimidin-7-one
                    3D
 Structure written by MMmdl.
 62 66  0  0  1  0            999 V2000
    8.4256    2.0145   10.2019 C   0  0  0  0  0  0
    8.8610    2.6517    8.9024 C   0  0  0  0  0  0
    8.4547    1.9476    7.6649 C   0  0  0  0  0  0
    7.7673    0.7358    7.6490 C   0  0  0  0  0  0
    7.3827    0.0794    6.5338 N   0  0  0  0  0  0
    7.7150    0.6834    5.3870 C   0  0  0  0  0  0
    8.3793    1.8433    5.2587 N   0  0  0  0  0  0
    8.7478    2.4652    6.4091 C   0  0  0  0  0  0
    9.4669    3.6893    6.3241 N   0  0  0  0  0  0
    9.9005    4.3810    7.4473 C   0  0  0  0  0  0
   10.5374    5.4352    7.3967 O   0  0  0  0  0  0
    9.5664    3.7969    8.7913 C   0  0  0  0  0  0
   10.0373    4.5164    9.9933 C   0  0  0  0  0  0
    9.2297    4.9289   10.8193 O   0  0  0  0  0  0
   11.5183    4.7059   10.1559 C   0  0  0  0  0  0
    9.7522    4.2011    4.9957 C   0  0  0  0  0  0
   11.2378    4.4522    4.7672 C   0  0  0  0  0  0
   11.2645    5.3745    3.5512 C   0  0  0  0  0  0
    9.9162    6.1003    3.5411 C   0  0  0  0  0  0
    9.1476    5.5786    4.7523 C   0  0  0  0  0  0
    7.3314    0.0371    4.1922 N   0  0  0  0  0  0
    7.5032    0.3649    2.8341 C   0  0  0  0  0  0
    6.9859   -0.5170    1.8990 C   0  0  0  0  0  0
    7.1462   -0.2065    0.5532 C   0  0  0  0  0  0
    7.8095    0.9600    0.1889 C   0  0  0  0  0  0
    8.2898    1.7759    1.2005 C   0  0  0  0  0  0
    8.1532    1.5075    2.5184 N   0  0  0  0  0  0
    7.9854    1.2998   -1.1572 N   0  0  0  0  0  0
    6.7864    1.4755   -1.9881 C   0  0  0  0  0  0
    7.1351    1.3280   -3.4687 C   0  0  0  0  0  0
    8.2322    2.2165   -3.8495 N   0  0  0  0  0  0
    9.4237    1.9112   -3.0594 C   0  0  0  0  0  0
    9.1602    2.0789   -1.5631 C   0  0  0  0  0  0
    7.8673    1.0911    9.9885 H   0  0  0  0  0  0
    7.7808    2.7133   10.7549 H   0  0  0  0  0  0
    9.3119    1.7754   10.8080 H   0  0  0  0  0  0
    7.4875    0.2175    8.5610 H   0  0  0  0  0  0
   11.7176    5.2535   11.0888 H   0  0  0  0  0  0
   11.9104    5.2795    9.3031 H   0  0  0  0  0  0
   12.0115    3.7235   10.1949 H   0  0  0  0  0  0
    9.3234    3.3973    4.3792 H   0  0  0  0  0  0
   11.6711    4.9263    5.6602 H   0  0  0  0  0  0
   11.7463    3.4956    4.5767 H   0  0  0  0  0  0
   12.0977    6.0860    3.6489 H   0  0  0  0  0  0
   11.3995    4.7748    2.6390 H   0  0  0  0  0  0
   10.0832    7.1851    3.6138 H   0  0  0  0  0  0
    9.3845    5.8731    2.6053 H   0  0  0  0  0  0
    8.0710    5.4761    4.5510 H   0  0  0  0  0  0
    9.2959    6.2068    5.6430 H   0  0  0  0  0  0
    6.7859   -0.9172    4.2338 H   0  0  0  0  0  0
    6.4691   -1.4249    2.1922 H   0  0  0  0  0  0
    6.7514   -0.8795   -0.2031 H   0  0  0  0  0  0
    8.8157    2.6997    0.9786 H   0  0  0  0  0  0
    6.0393    0.7142   -1.7194 H   0  0  0  0  0  0
    6.3661    2.4777   -1.8181 H   0  0  0  0  0  0
    7.4394    0.2907   -3.6721 H   0  0  0  0  0  0
    6.2551    1.5784   -4.0794 H   0  0  0  0  0  0
    8.4618    2.0791   -4.9165 H   0  0  0  0  0  0
    9.7301    0.8712   -3.2450 H   0  0  0  0  0  0
   10.2391    2.5907   -3.3481 H   0  0  0  0  0  0
    8.9861    3.1436   -1.3483 H   0  0  0  0  0  0
   10.0416    1.7314   -1.0042 H   0  0  0  0  0  0
  1  2  1  0  0  0
  1 34  1  0  0  0
  1 35  1  0  0  0
  1 36  1  0  0  0
  2 12  2  0  0  0
  2  3  1  0  0  0
  3  8  2  0  0  0
  3  4  1  0  0  0
  4  5  2  0  0  0
  4 37  1  0  0  0
  5  6  1  0  0  0
  6  7  2  0  0  0
  6 21  1  0  0  0
  7  8  1  0  0  0
  8  9  1  0  0  0
  9 10  1  0  0  0
  9 16  1  0  0  0
 10 11  2  0  0  0
 10 12  1  0  0  0
 12 13  1  0  0  0
 13 14  2  0  0  0
 13 15  1  0  0  0
 15 38  1  0  0  0
 15 39  1  0  0  0
 15 40  1  0  0  0
 16 20  1  0  0  0
 16 17  1  0  0  0
 16 41  1  0  0  0
 17 18  1  0  0  0
 17 42  1  0  0  0
 17 43  1  0  0  0
 18 19  1  0  0  0
 18 44  1  0  0  0
 18 45  1  0  0  0
 19 20  1  0  0  0
 19 46  1  0  0  0
 19 47  1  0  0  0
 20 48  1  0  0  0
 20 49  1  0  0  0
 21 22  1  0  0  0
 21 50  1  0  0  0
 22 27  2  0  0  0
 22 23  1  0  0  0
 23 24  2  0  0  0
 23 51  1  0  0  0
 24 25  1  0  0  0
 24 52  1  0  0  0
 25 26  2  0  0  0
 25 28  1  0  0  0
 26 27  1  0  0  0
 26 53  1  0  0  0
 28 33  1  0  0  0
 28 29  1  0  0  0
 29 30  1  0  0  0
 29 54  1  0  0  0
 29 55  1  0  0  0
 30 31  1  0  0  0
 30 56  1  0  0  0
 30 57  1  0  0  0
 31 32  1  0  0  0
 31 58  1  0  0  0
 32 33  1  0  0  0
 32 59  1  0  0  0
 32 60  1  0  0  0
 33 61  1  0  0  0
 33 62  1  0  0  0
M  END
> <s_m_source_file>
/cbio/jclab/home/andrrizzi/epik_inhibitors/output/Palbociclib/Palbociclib-input.mol2

> <i_m_source_file_index>
1

> <r_lp_tautomer_probability>
0.999940280531876

> <r_epik_Ionization_Penalty>
  2.8985

> <r_epik_Ionization_Penalty_Charging>
  0.0000

> <r_epik_Ionization_Penalty_Neutral>
  2.8985

> <r_epik_State_Penalty>
  2.4336

> <i_epik_Tot_Q>
0

> <s_epik_Chemistry_Notes>
This compound has an imine and may undergo hydrolysis.

$$$$
