@<TRIPOS>MOLECULE
6-acetyl-8-cyclopentyl-5-methyl-2-[(5-piperazin-1-yl-2-pyridyl)amino]pyrido[2,3-d]pyrimidin-7-one
63   67    1
SMALL
USER_CHARGES


@<TRIPOS>ATOM
      1 C1          8.4256    2.0145   10.2019 C.3       1 PAL        -0.0814 
      2 C2          8.8610    2.6517    8.9024 C.ar      1 PAL         0.0910 
      3 C3          8.4547    1.9476    7.6649 C.ar      1 PAL        -0.4206 
      4 C4          7.7673    0.7358    7.6490 C.ar      1 PAL         0.5133 
      5 N1          7.3827    0.0794    6.5338 N.ar      1 PAL        -0.7559 
      6 C5          7.7150    0.6834    5.3870 C.ar      1 PAL         0.9320 
      7 N2          8.3793    1.8433    5.2587 N.ar      1 PAL        -0.8135 
      8 C6          8.7478    2.4652    6.4091 C.ar      1 PAL         0.6341 
      9 N3          9.4669    3.6893    6.3241 N.pl3     1 PAL        -0.4117 
     10 C7          9.9005    4.3810    7.4473 C.ar      1 PAL         0.7214 
     11 O1         10.5374    5.4352    7.3967 O.2       1 PAL        -0.6119 
     12 C8          9.5664    3.7969    8.7913 C.ar      1 PAL        -0.2848 
     13 C9         10.0373    4.5164    9.9933 C.2       1 PAL         0.6020 
     14 O2          9.2297    4.9289   10.8193 O.2       1 PAL        -0.5096 
     15 C10        11.5182    4.7059   10.1559 C.3       1 PAL        -0.1929 
     16 C11         9.7522    4.2011    4.9957 C.3       1 PAL         0.0909 
     17 C12        11.2378    4.4522    4.7672 C.3       1 PAL        -0.0924 
     18 C13        11.2645    5.3745    3.5512 C.3       1 PAL        -0.0771 
     19 C14         9.9162    6.1003    3.5411 C.3       1 PAL        -0.0771 
     20 C15         9.1476    5.5786    4.7523 C.3       1 PAL        -0.0924 
     21 N4          7.3314    0.0371    4.1922 N.pl3     1 PAL        -0.8124 
     22 C16         7.5032    0.3649    2.8341 C.ar      1 PAL         0.6024 
     23 C17         6.9859   -0.5170    1.8990 C.ar      1 PAL        -0.2062 
     24 C18         7.1462   -0.2065    0.5532 C.ar      1 PAL        -0.1109 
     25 C19         7.8095    0.9600    0.1889 C.ar      1 PAL         0.0140 
     26 C20         8.2898    1.7759    1.2005 C.ar      1 PAL         0.3764 
     27 N5          8.1532    1.5075    2.5184 N.ar      1 PAL        -0.6854 
     28 N6          7.9854    1.2998   -1.1572 N.pl3     1 PAL        -0.6436 
     29 C21         6.7864    1.4755   -1.9881 C.3       1 PAL         0.1900 
     30 C22         7.1351    1.3280   -3.4687 C.3       1 PAL         0.1592 
     31 N7          8.2322    2.2165   -3.8495 N.4       1 PAL        -0.8173 
     32 C23         9.4237    1.9112   -3.0594 C.3       1 PAL         0.1592 
     33 C24         9.1602    2.0789   -1.5631 C.3       1 PAL         0.1900 
     34 H1          7.8673    1.0911    9.9885 H         1 PAL         0.0605 
     35 H2          7.7808    2.7133   10.7549 H         1 PAL         0.0605 
     36 H3          9.3119    1.7754   10.8080 H         1 PAL         0.0605 
     37 H4          7.4875    0.2175    8.5610 H         1 PAL         0.0336 
     38 H5         11.7175    5.2535   11.0888 H         1 PAL         0.0670 
     39 H6         11.9103    5.2795    9.3031 H         1 PAL         0.0670 
     40 H7         12.0115    3.7235   10.1949 H         1 PAL         0.0670 
     41 H8          9.3234    3.3973    4.3792 H         1 PAL         0.0934 
     42 H9         11.6711    4.9263    5.6602 H         1 PAL         0.0595 
     43 H10        11.7463    3.4956    4.5767 H         1 PAL         0.0595 
     44 H11        12.0977    6.0860    3.6489 H         1 PAL         0.0439 
     45 H12        11.3995    4.7748    2.6390 H         1 PAL         0.0439 
     46 H13        10.0832    7.1851    3.6138 H         1 PAL         0.0439 
     47 H14         9.3845    5.8731    2.6053 H         1 PAL         0.0439 
     48 H15         8.0710    5.4761    4.5510 H         1 PAL         0.0595 
     49 H16         9.2959    6.2068    5.6430 H         1 PAL         0.0595 
     50 H17         6.7859   -0.9172    4.2338 H         1 PAL         0.4652 
     51 H18         6.4691   -1.4249    2.1922 H         1 PAL         0.1646 
     52 H19         6.7514   -0.8795   -0.2031 H         1 PAL         0.1465 
     53 H20         8.8157    2.6997    0.9786 H         1 PAL         0.0262 
     54 H21         6.0393    0.7142   -1.7194 H         1 PAL         0.0446 
     55 H22         6.3661    2.4777   -1.8181 H         1 PAL         0.0446 
     56 H23         7.4394    0.2907   -3.6721 H         1 PAL         0.0378 
     57 H24         6.2551    1.5784   -4.0794 H         1 PAL         0.0378 
     58 H25         8.4618    2.0791   -4.9165 H         1 PAL         0.3658 
     59 H26         9.7301    0.8712   -3.2450 H         1 PAL         0.0378 
     60 H27        10.2391    2.5907   -3.3481 H         1 PAL         0.0378 
     61 H28         8.9861    3.1436   -1.3483 H         1 PAL         0.0446 
     62 H29        10.0416    1.7314   -1.0042 H         1 PAL         0.0446 
     63 H63         7.9376    3.2609   -3.6694 H         1 PAL         0.0000 
@<TRIPOS>BOND
     1    1    2 1    
     2    1   34 1    
     3    1   35 1    
     4    1   36 1    
     5    2   12 ar   
     6    2    3 ar   
     7    3    8 ar   
     8    3    4 ar   
     9    4    5 ar   
    10    4   37 1    
    11    5    6 ar   
    12    6    7 ar   
    13    6   21 1    
    14    7    8 ar   
    15    8    9 ar   
    16    9   10 ar   
    17    9   16 1    
    18   10   11 2    
    19   10   12 ar   
    20   12   13 1    
    21   13   14 2    
    22   13   15 1    
    23   15   38 1    
    24   15   39 1    
    25   15   40 1    
    26   16   20 1    
    27   16   17 1    
    28   16   41 1    
    29   17   18 1    
    30   17   42 1    
    31   17   43 1    
    32   18   19 1    
    33   18   44 1    
    34   18   45 1    
    35   19   20 1    
    36   19   46 1    
    37   19   47 1    
    38   20   48 1    
    39   20   49 1    
    40   21   22 1    
    41   21   50 1    
    42   22   27 ar   
    43   22   23 ar   
    44   23   24 ar   
    45   23   51 1    
    46   24   25 ar   
    47   24   52 1    
    48   25   26 ar   
    49   25   28 1    
    50   26   27 ar   
    51   26   53 1    
    52   28   33 1    
    53   28   29 1    
    54   29   30 1    
    55   29   54 1    
    56   29   55 1    
    57   30   31 1    
    58   30   56 1    
    59   30   57 1    
    60   31   32 1    
    61   31   58 1    
    62   31   63 1    
    63   32   33 1    
    64   32   59 1    
    65   32   60 1    
    66   33   61 1    
    67   33   62 1    
@<TRIPOS>SUBSTRUCTURE
     1 PAL         1 GROUP             0       ****    0 ROOT    
@<TRIPOS>MOLECULE
6-acetyl-8-cyclopentyl-5-methyl-2-[(5-piperazin-1-yl-2-pyridyl)amino]pyrido[2,3-d]pyrimidin-7-one
64   68    1
SMALL
USER_CHARGES


@<TRIPOS>ATOM
      1 C1          8.4256    2.0145   10.2019 C.3       1 PAL        -0.0814 
      2 C2          8.8610    2.6517    8.9024 C.ar      1 PAL         0.0910 
      3 C3          8.4547    1.9476    7.6649 C.ar      1 PAL        -0.4206 
      4 C4          7.7673    0.7358    7.6490 C.ar      1 PAL         0.5133 
      5 N1          7.3827    0.0794    6.5338 N.ar      1 PAL        -0.7559 
      6 C5          7.7150    0.6834    5.3870 C.ar      1 PAL         0.9320 
      7 N2          8.3793    1.8433    5.2587 N.ar      1 PAL        -0.8135 
      8 C6          8.7478    2.4652    6.4091 C.ar      1 PAL         0.6341 
      9 N3          9.4669    3.6893    6.3241 N.pl3     1 PAL        -0.4117 
     10 C7          9.9005    4.3810    7.4473 C.ar      1 PAL         0.7214 
     11 O1         10.5374    5.4352    7.3967 O.2       1 PAL        -0.6119 
     12 C8          9.5664    3.7969    8.7913 C.ar      1 PAL        -0.2848 
     13 C9         10.0373    4.5164    9.9933 C.2       1 PAL         0.6020 
     14 O2          9.2297    4.9289   10.8193 O.2       1 PAL        -0.5096 
     15 C10        11.5182    4.7059   10.1559 C.3       1 PAL        -0.1929 
     16 C11         9.7522    4.2011    4.9957 C.3       1 PAL         0.0909 
     17 C12        11.2378    4.4522    4.7672 C.3       1 PAL        -0.0924 
     18 C13        11.2645    5.3745    3.5512 C.3       1 PAL        -0.0771 
     19 C14         9.9162    6.1003    3.5411 C.3       1 PAL        -0.0771 
     20 C15         9.1476    5.5786    4.7523 C.3       1 PAL        -0.0924 
     21 N4          7.3314    0.0371    4.1922 N.pl3     1 PAL        -0.8124 
     22 C16         7.5032    0.3649    2.8341 C.ar      1 PAL         0.6024 
     23 C17         6.9859   -0.5170    1.8990 C.ar      1 PAL        -0.2062 
     24 C18         7.1462   -0.2065    0.5532 C.ar      1 PAL        -0.1109 
     25 C19         7.8095    0.9600    0.1889 C.ar      1 PAL         0.0140 
     26 C20         8.2898    1.7759    1.2005 C.ar      1 PAL         0.3764 
     27 N5          8.1532    1.5075    2.5184 N.pl3     1 PAL        -0.6854 
     28 N6          7.9854    1.2998   -1.1572 N.pl3     1 PAL        -0.6436 
     29 C21         6.7864    1.4755   -1.9881 C.3       1 PAL         0.1900 
     30 C22         7.1351    1.3280   -3.4687 C.3       1 PAL         0.1592 
     31 N7          8.2322    2.2165   -3.8495 N.4       1 PAL        -0.8173 
     32 C23         9.4237    1.9112   -3.0594 C.3       1 PAL         0.1592 
     33 C24         9.1602    2.0789   -1.5631 C.3       1 PAL         0.1900 
     34 H1          7.8673    1.0911    9.9885 H         1 PAL         0.0605 
     35 H2          7.7808    2.7133   10.7549 H         1 PAL         0.0605 
     36 H3          9.3119    1.7754   10.8080 H         1 PAL         0.0605 
     37 H4          7.4875    0.2175    8.5610 H         1 PAL         0.0336 
     38 H5         11.7175    5.2535   11.0888 H         1 PAL         0.0670 
     39 H6         11.9103    5.2795    9.3031 H         1 PAL         0.0670 
     40 H7         12.0115    3.7235   10.1949 H         1 PAL         0.0670 
     41 H8          9.3234    3.3973    4.3792 H         1 PAL         0.0934 
     42 H9         11.6711    4.9263    5.6602 H         1 PAL         0.0595 
     43 H10        11.7463    3.4956    4.5767 H         1 PAL         0.0595 
     44 H11        12.0977    6.0860    3.6489 H         1 PAL         0.0439 
     45 H12        11.3995    4.7748    2.6390 H         1 PAL         0.0439 
     46 H13        10.0832    7.1851    3.6138 H         1 PAL         0.0439 
     47 H14         9.3845    5.8731    2.6053 H         1 PAL         0.0439 
     48 H15         8.0710    5.4761    4.5510 H         1 PAL         0.0595 
     49 H16         9.2959    6.2068    5.6430 H         1 PAL         0.0595 
     50 H17         6.7859   -0.9172    4.2338 H         1 PAL         0.4652 
     51 H18         6.4691   -1.4249    2.1922 H         1 PAL         0.1646 
     52 H19         6.7514   -0.8795   -0.2031 H         1 PAL         0.1465 
     53 H20         8.8157    2.6997    0.9786 H         1 PAL         0.0262 
     54 H21         6.0393    0.7142   -1.7194 H         1 PAL         0.0446 
     55 H22         6.3661    2.4777   -1.8181 H         1 PAL         0.0446 
     56 H23         7.4394    0.2907   -3.6721 H         1 PAL         0.0378 
     57 H24         6.2551    1.5784   -4.0794 H         1 PAL         0.0378 
     58 H25         8.4618    2.0791   -4.9165 H         1 PAL         0.3658 
     59 H26         9.7301    0.8712   -3.2450 H         1 PAL         0.0378 
     60 H27        10.2391    2.5907   -3.3481 H         1 PAL         0.0378 
     61 H28         8.9861    3.1436   -1.3483 H         1 PAL         0.0446 
     62 H29        10.0416    1.7314   -1.0042 H         1 PAL         0.0446 
     63 H63         7.9376    3.2609   -3.6694 H         1 PAL         0.0000 
     64 H64         8.5372    2.1602    3.3162 H         1 PAL         0.0000 
@<TRIPOS>BOND
     1    1    2 1    
     2    1   34 1    
     3    1   35 1    
     4    1   36 1    
     5    2   12 ar   
     6    2    3 ar   
     7    3    8 ar   
     8    3    4 ar   
     9    4    5 ar   
    10    4   37 1    
    11    5    6 ar   
    12    6    7 ar   
    13    6   21 1    
    14    7    8 ar   
    15    8    9 ar   
    16    9   10 ar   
    17    9   16 1    
    18   10   11 2    
    19   10   12 ar   
    20   12   13 1    
    21   13   14 2    
    22   13   15 1    
    23   15   38 1    
    24   15   39 1    
    25   15   40 1    
    26   16   20 1    
    27   16   17 1    
    28   16   41 1    
    29   17   18 1    
    30   17   42 1    
    31   17   43 1    
    32   18   19 1    
    33   18   44 1    
    34   18   45 1    
    35   19   20 1    
    36   19   46 1    
    37   19   47 1    
    38   20   48 1    
    39   20   49 1    
    40   21   22 1    
    41   21   50 1    
    42   22   27 ar   
    43   22   23 ar   
    44   23   24 ar   
    45   23   51 1    
    46   24   25 ar   
    47   24   52 1    
    48   25   26 ar   
    49   25   28 1    
    50   26   27 ar   
    51   26   53 1    
    52   27   64 1    
    53   28   33 1    
    54   28   29 1    
    55   29   30 1    
    56   29   54 1    
    57   29   55 1    
    58   30   31 1    
    59   30   56 1    
    60   30   57 1    
    61   31   32 1    
    62   31   58 1    
    63   31   63 1    
    64   32   33 1    
    65   32   59 1    
    66   32   60 1    
    67   33   61 1    
    68   33   62 1    
@<TRIPOS>SUBSTRUCTURE
     1 PAL         1 GROUP             0       ****    0 ROOT    
@<TRIPOS>MOLECULE
6-acetyl-8-cyclopentyl-5-methyl-2-[(5-piperazin-1-yl-2-pyridyl)amino]pyrido[2,3-d]pyrimidin-7-one
62   66    1
SMALL
USER_CHARGES


@<TRIPOS>ATOM
      1 C1          8.4256    2.0145   10.2019 C.3       1 PAL        -0.0814 
      2 C2          8.8610    2.6517    8.9024 C.ar      1 PAL         0.0910 
      3 C3          8.4547    1.9476    7.6649 C.ar      1 PAL        -0.4206 
      4 C4          7.7673    0.7358    7.6490 C.ar      1 PAL         0.5133 
      5 N1          7.3827    0.0794    6.5338 N.ar      1 PAL        -0.7559 
      6 C5          7.7150    0.6834    5.3870 C.ar      1 PAL         0.9320 
      7 N2          8.3793    1.8433    5.2587 N.ar      1 PAL        -0.8135 
      8 C6          8.7478    2.4652    6.4091 C.ar      1 PAL         0.6341 
      9 N3          9.4669    3.6893    6.3241 N.pl3     1 PAL        -0.4117 
     10 C7          9.9005    4.3810    7.4473 C.ar      1 PAL         0.7214 
     11 O1         10.5374    5.4352    7.3967 O.2       1 PAL        -0.6119 
     12 C8          9.5664    3.7969    8.7913 C.ar      1 PAL        -0.2848 
     13 C9         10.0373    4.5164    9.9933 C.2       1 PAL         0.6020 
     14 O2          9.2297    4.9289   10.8193 O.2       1 PAL        -0.5096 
     15 C10        11.5182    4.7059   10.1559 C.3       1 PAL        -0.1929 
     16 C11         9.7522    4.2011    4.9957 C.3       1 PAL         0.0909 
     17 C12        11.2378    4.4522    4.7672 C.3       1 PAL        -0.0924 
     18 C13        11.2645    5.3745    3.5512 C.3       1 PAL        -0.0771 
     19 C14         9.9162    6.1003    3.5411 C.3       1 PAL        -0.0771 
     20 C15         9.1476    5.5786    4.7523 C.3       1 PAL        -0.0924 
     21 N4          7.3314    0.0371    4.1922 N.pl3     1 PAL        -0.8124 
     22 C16         7.5032    0.3649    2.8341 C.ar      1 PAL         0.6024 
     23 C17         6.9859   -0.5170    1.8990 C.ar      1 PAL        -0.2062 
     24 C18         7.1462   -0.2065    0.5532 C.ar      1 PAL        -0.1109 
     25 C19         7.8095    0.9600    0.1889 C.ar      1 PAL         0.0140 
     26 C20         8.2898    1.7759    1.2005 C.ar      1 PAL         0.3764 
     27 N5          8.1532    1.5075    2.5184 N.ar      1 PAL        -0.6854 
     28 N6          7.9854    1.2998   -1.1572 N.pl3     1 PAL        -0.6436 
     29 C21         6.7864    1.4755   -1.9881 C.3       1 PAL         0.1900 
     30 C22         7.1351    1.3280   -3.4687 C.3       1 PAL         0.1592 
     31 N7          8.2322    2.2165   -3.8495 N.3       1 PAL        -0.8173 
     32 C23         9.4237    1.9112   -3.0594 C.3       1 PAL         0.1592 
     33 C24         9.1602    2.0789   -1.5631 C.3       1 PAL         0.1900 
     34 H1          7.8673    1.0911    9.9885 H         1 PAL         0.0605 
     35 H2          7.7808    2.7133   10.7549 H         1 PAL         0.0605 
     36 H3          9.3119    1.7754   10.8080 H         1 PAL         0.0605 
     37 H4          7.4875    0.2175    8.5610 H         1 PAL         0.0336 
     38 H5         11.7175    5.2535   11.0888 H         1 PAL         0.0670 
     39 H6         11.9103    5.2795    9.3031 H         1 PAL         0.0670 
     40 H7         12.0115    3.7235   10.1949 H         1 PAL         0.0670 
     41 H8          9.3234    3.3973    4.3792 H         1 PAL         0.0934 
     42 H9         11.6711    4.9263    5.6602 H         1 PAL         0.0595 
     43 H10        11.7463    3.4956    4.5767 H         1 PAL         0.0595 
     44 H11        12.0977    6.0860    3.6489 H         1 PAL         0.0439 
     45 H12        11.3995    4.7748    2.6390 H         1 PAL         0.0439 
     46 H13        10.0832    7.1851    3.6138 H         1 PAL         0.0439 
     47 H14         9.3845    5.8731    2.6053 H         1 PAL         0.0439 
     48 H15         8.0710    5.4761    4.5510 H         1 PAL         0.0595 
     49 H16         9.2959    6.2068    5.6430 H         1 PAL         0.0595 
     50 H17         6.7859   -0.9172    4.2338 H         1 PAL         0.4652 
     51 H18         6.4691   -1.4249    2.1922 H         1 PAL         0.1646 
     52 H19         6.7514   -0.8795   -0.2031 H         1 PAL         0.1465 
     53 H20         8.8157    2.6997    0.9786 H         1 PAL         0.0262 
     54 H21         6.0393    0.7142   -1.7194 H         1 PAL         0.0446 
     55 H22         6.3661    2.4777   -1.8181 H         1 PAL         0.0446 
     56 H23         7.4394    0.2907   -3.6721 H         1 PAL         0.0378 
     57 H24         6.2551    1.5784   -4.0794 H         1 PAL         0.0378 
     58 H25         8.4618    2.0791   -4.9165 H         1 PAL         0.3658 
     59 H26         9.7301    0.8712   -3.2450 H         1 PAL         0.0378 
     60 H27        10.2391    2.5907   -3.3481 H         1 PAL         0.0378 
     61 H28         8.9861    3.1436   -1.3483 H         1 PAL         0.0446 
     62 H29        10.0416    1.7314   -1.0042 H         1 PAL         0.0446 
@<TRIPOS>BOND
     1    1    2 1    
     2    1   34 1    
     3    1   35 1    
     4    1   36 1    
     5    2   12 ar   
     6    2    3 ar   
     7    3    8 ar   
     8    3    4 ar   
     9    4    5 ar   
    10    4   37 1    
    11    5    6 ar   
    12    6    7 ar   
    13    6   21 1    
    14    7    8 ar   
    15    8    9 ar   
    16    9   10 ar   
    17    9   16 1    
    18   10   11 2    
    19   10   12 ar   
    20   12   13 1    
    21   13   14 2    
    22   13   15 1    
    23   15   38 1    
    24   15   39 1    
    25   15   40 1    
    26   16   20 1    
    27   16   17 1    
    28   16   41 1    
    29   17   18 1    
    30   17   42 1    
    31   17   43 1    
    32   18   19 1    
    33   18   44 1    
    34   18   45 1    
    35   19   20 1    
    36   19   46 1    
    37   19   47 1    
    38   20   48 1    
    39   20   49 1    
    40   21   22 1    
    41   21   50 1    
    42   22   27 ar   
    43   22   23 ar   
    44   23   24 ar   
    45   23   51 1    
    46   24   25 ar   
    47   24   52 1    
    48   25   26 ar   
    49   25   28 1    
    50   26   27 ar   
    51   26   53 1    
    52   28   33 1    
    53   28   29 1    
    54   29   30 1    
    55   29   54 1    
    56   29   55 1    
    57   30   31 1    
    58   30   56 1    
    59   30   57 1    
    60   31   32 1    
    61   31   58 1    
    62   32   33 1    
    63   32   59 1    
    64   32   60 1    
    65   33   61 1    
    66   33   62 1    
@<TRIPOS>SUBSTRUCTURE
     1 PAL         1 GROUP             0       ****    0 ROOT    
@<TRIPOS>MOLECULE
6-acetyl-8-cyclopentyl-5-methyl-2-[(5-piperazin-1-yl-2-pyridyl)amino]pyrido[2,3-d]pyrimidin-7-one
63   67    1
SMALL
USER_CHARGES


@<TRIPOS>ATOM
      1 C1          8.4256    2.0145   10.2019 C.3       1 PAL        -0.0814 
      2 C2          8.8610    2.6517    8.9024 C.ar      1 PAL         0.0910 
      3 C3          8.4547    1.9476    7.6649 C.ar      1 PAL        -0.4206 
      4 C4          7.7673    0.7358    7.6490 C.ar      1 PAL         0.5133 
      5 N1          7.3827    0.0794    6.5338 N.ar      1 PAL        -0.7559 
      6 C5          7.7150    0.6834    5.3870 C.ar      1 PAL         0.9320 
      7 N2          8.3793    1.8433    5.2587 N.ar      1 PAL        -0.8135 
      8 C6          8.7478    2.4652    6.4091 C.ar      1 PAL         0.6341 
      9 N3          9.4669    3.6893    6.3241 N.pl3     1 PAL        -0.4117 
     10 C7          9.9005    4.3810    7.4473 C.ar      1 PAL         0.7214 
     11 O1         10.5374    5.4352    7.3967 O.2       1 PAL        -0.6119 
     12 C8          9.5664    3.7969    8.7913 C.ar      1 PAL        -0.2848 
     13 C9         10.0373    4.5164    9.9933 C.2       1 PAL         0.6020 
     14 O2          9.2297    4.9289   10.8193 O.2       1 PAL        -0.5096 
     15 C10        11.5182    4.7059   10.1559 C.3       1 PAL        -0.1929 
     16 C11         9.7522    4.2011    4.9957 C.3       1 PAL         0.0909 
     17 C12        11.2378    4.4522    4.7672 C.3       1 PAL        -0.0924 
     18 C13        11.2645    5.3745    3.5512 C.3       1 PAL        -0.0771 
     19 C14         9.9162    6.1003    3.5411 C.3       1 PAL        -0.0771 
     20 C15         9.1476    5.5786    4.7523 C.3       1 PAL        -0.0924 
     21 N4          7.3314    0.0371    4.1922 N.pl3     1 PAL        -0.8124 
     22 C16         7.5032    0.3649    2.8341 C.ar      1 PAL         0.6024 
     23 C17         6.9859   -0.5170    1.8990 C.ar      1 PAL        -0.2062 
     24 C18         7.1462   -0.2065    0.5532 C.ar      1 PAL        -0.1109 
     25 C19         7.8095    0.9600    0.1889 C.ar      1 PAL         0.0140 
     26 C20         8.2898    1.7759    1.2005 C.ar      1 PAL         0.3764 
     27 N5          8.1532    1.5075    2.5184 N.pl3     1 PAL        -0.6854 
     28 N6          7.9854    1.2998   -1.1572 N.pl3     1 PAL        -0.6436 
     29 C21         6.7864    1.4755   -1.9881 C.3       1 PAL         0.1900 
     30 C22         7.1351    1.3280   -3.4687 C.3       1 PAL         0.1592 
     31 N7          8.2322    2.2165   -3.8495 N.3       1 PAL        -0.8173 
     32 C23         9.4237    1.9112   -3.0594 C.3       1 PAL         0.1592 
     33 C24         9.1602    2.0789   -1.5631 C.3       1 PAL         0.1900 
     34 H1          7.8673    1.0911    9.9885 H         1 PAL         0.0605 
     35 H2          7.7808    2.7133   10.7549 H         1 PAL         0.0605 
     36 H3          9.3119    1.7754   10.8080 H         1 PAL         0.0605 
     37 H4          7.4875    0.2175    8.5610 H         1 PAL         0.0336 
     38 H5         11.7175    5.2535   11.0888 H         1 PAL         0.0670 
     39 H6         11.9103    5.2795    9.3031 H         1 PAL         0.0670 
     40 H7         12.0115    3.7235   10.1949 H         1 PAL         0.0670 
     41 H8          9.3234    3.3973    4.3792 H         1 PAL         0.0934 
     42 H9         11.6711    4.9263    5.6602 H         1 PAL         0.0595 
     43 H10        11.7463    3.4956    4.5767 H         1 PAL         0.0595 
     44 H11        12.0977    6.0860    3.6489 H         1 PAL         0.0439 
     45 H12        11.3995    4.7748    2.6390 H         1 PAL         0.0439 
     46 H13        10.0832    7.1851    3.6138 H         1 PAL         0.0439 
     47 H14         9.3845    5.8731    2.6053 H         1 PAL         0.0439 
     48 H15         8.0710    5.4761    4.5510 H         1 PAL         0.0595 
     49 H16         9.2959    6.2068    5.6430 H         1 PAL         0.0595 
     50 H17         6.7859   -0.9172    4.2338 H         1 PAL         0.4652 
     51 H18         6.4691   -1.4249    2.1922 H         1 PAL         0.1646 
     52 H19         6.7514   -0.8795   -0.2031 H         1 PAL         0.1465 
     53 H20         8.8157    2.6997    0.9786 H         1 PAL         0.0262 
     54 H21         6.0393    0.7142   -1.7194 H         1 PAL         0.0446 
     55 H22         6.3661    2.4777   -1.8181 H         1 PAL         0.0446 
     56 H23         7.4394    0.2907   -3.6721 H         1 PAL         0.0378 
     57 H24         6.2551    1.5784   -4.0794 H         1 PAL         0.0378 
     58 H25         8.4618    2.0791   -4.9165 H         1 PAL         0.3658 
     59 H26         9.7301    0.8712   -3.2450 H         1 PAL         0.0378 
     60 H27        10.2391    2.5907   -3.3481 H         1 PAL         0.0378 
     61 H28         8.9861    3.1436   -1.3483 H         1 PAL         0.0446 
     62 H29        10.0416    1.7314   -1.0042 H         1 PAL         0.0446 
     63 H63         8.5372    2.1602    3.3162 H         1 PAL         0.0000 
@<TRIPOS>BOND
     1    1    2 1    
     2    1   34 1    
     3    1   35 1    
     4    1   36 1    
     5    2   12 ar   
     6    2    3 ar   
     7    3    8 ar   
     8    3    4 ar   
     9    4    5 ar   
    10    4   37 1    
    11    5    6 ar   
    12    6    7 ar   
    13    6   21 1    
    14    7    8 ar   
    15    8    9 ar   
    16    9   10 ar   
    17    9   16 1    
    18   10   11 2    
    19   10   12 ar   
    20   12   13 1    
    21   13   14 2    
    22   13   15 1    
    23   15   38 1    
    24   15   39 1    
    25   15   40 1    
    26   16   20 1    
    27   16   17 1    
    28   16   41 1    
    29   17   18 1    
    30   17   42 1    
    31   17   43 1    
    32   18   19 1    
    33   18   44 1    
    34   18   45 1    
    35   19   20 1    
    36   19   46 1    
    37   19   47 1    
    38   20   48 1    
    39   20   49 1    
    40   21   22 1    
    41   21   50 1    
    42   22   27 ar   
    43   22   23 ar   
    44   23   24 ar   
    45   23   51 1    
    46   24   25 ar   
    47   24   52 1    
    48   25   26 ar   
    49   25   28 1    
    50   26   27 ar   
    51   26   53 1    
    52   27   63 1    
    53   28   33 1    
    54   28   29 1    
    55   29   30 1    
    56   29   54 1    
    57   29   55 1    
    58   30   31 1    
    59   30   56 1    
    60   30   57 1    
    61   31   32 1    
    62   31   58 1    
    63   32   33 1    
    64   32   59 1    
    65   32   60 1    
    66   33   61 1    
    67   33   62 1    
@<TRIPOS>SUBSTRUCTURE
     1 PAL         1 GROUP             0       ****    0 ROOT    
@<TRIPOS>MOLECULE
6-acetyl-8-cyclopentyl-5-methyl-2-[(5-piperazin-1-yl-2-pyridyl)amino]pyrido[2,3-d]pyrimidin-7-one
63   67    1
SMALL
USER_CHARGES


@<TRIPOS>ATOM
      1 C1          8.4256    2.0145   10.2019 C.3       1 PAL        -0.0814 
      2 C2          8.8610    2.6517    8.9024 C.ar      1 PAL         0.0910 
      3 C3          8.4547    1.9476    7.6649 C.ar      1 PAL        -0.4206 
      4 C4          7.7673    0.7358    7.6490 C.ar      1 PAL         0.5133 
      5 N1          7.3827    0.0794    6.5338 N.ar      1 PAL        -0.7559 
      6 C5          7.7150    0.6834    5.3870 C.ar      1 PAL         0.9320 
      7 N2          8.3793    1.8433    5.2587 N.ar      1 PAL        -0.8135 
      8 C6          8.7478    2.4652    6.4091 C.ar      1 PAL         0.6341 
      9 N3          9.4669    3.6893    6.3241 N.pl3     1 PAL        -0.4117 
     10 C7          9.9005    4.3810    7.4473 C.ar      1 PAL         0.7214 
     11 O1         10.5374    5.4352    7.3967 O.2       1 PAL        -0.6119 
     12 C8          9.5664    3.7969    8.7913 C.ar      1 PAL        -0.2848 
     13 C9         10.0373    4.5164    9.9933 C.2       1 PAL         0.6020 
     14 O2          9.2293    4.9352   10.8157 O.3       1 PAL        -0.5096 
     15 C10        11.5182    4.7059   10.1559 C.2       1 PAL        -0.1929 
     16 C11         9.7522    4.2011    4.9957 C.3       1 PAL         0.0909 
     17 C12        11.2378    4.4522    4.7672 C.3       1 PAL        -0.0924 
     18 C13        11.2645    5.3745    3.5512 C.3       1 PAL        -0.0771 
     19 C14         9.9162    6.1003    3.5411 C.3       1 PAL        -0.0771 
     20 C15         9.1476    5.5786    4.7523 C.3       1 PAL        -0.0924 
     21 N4          7.3314    0.0371    4.1922 N.pl3     1 PAL        -0.8124 
     22 C16         7.5032    0.3649    2.8341 C.ar      1 PAL         0.6024 
     23 C17         6.9859   -0.5170    1.8990 C.ar      1 PAL        -0.2062 
     24 C18         7.1462   -0.2065    0.5532 C.ar      1 PAL        -0.1109 
     25 C19         7.8095    0.9600    0.1889 C.ar      1 PAL         0.0140 
     26 C20         8.2898    1.7759    1.2005 C.ar      1 PAL         0.3764 
     27 N5          8.1532    1.5075    2.5184 N.ar      1 PAL        -0.6854 
     28 N6          7.9854    1.2998   -1.1572 N.pl3     1 PAL        -0.6436 
     29 C21         6.7864    1.4755   -1.9881 C.3       1 PAL         0.1900 
     30 C22         7.1351    1.3280   -3.4687 C.3       1 PAL         0.1592 
     31 N7          8.2322    2.2165   -3.8495 N.4       1 PAL        -0.8173 
     32 C23         9.4237    1.9112   -3.0594 C.3       1 PAL         0.1592 
     33 C24         9.1602    2.0789   -1.5631 C.3       1 PAL         0.1900 
     34 H1          7.8673    1.0911    9.9885 H         1 PAL         0.0605 
     35 H2          7.7808    2.7133   10.7549 H         1 PAL         0.0605 
     36 H3          9.3119    1.7754   10.8080 H         1 PAL         0.0605 
     37 H4          7.4875    0.2175    8.5610 H         1 PAL         0.0336 
     38 H5         11.9115    5.2358   11.0359 H         1 PAL         0.0670 
     39 H6         12.2096    4.3148    9.3950 H         1 PAL         0.0670 
     40 H7          8.1523    4.7755   10.6592 H         1 PAL         0.0670 
     41 H8          9.3234    3.3973    4.3792 H         1 PAL         0.0934 
     42 H9         11.6711    4.9263    5.6602 H         1 PAL         0.0595 
     43 H10        11.7463    3.4956    4.5767 H         1 PAL         0.0595 
     44 H11        12.0977    6.0860    3.6489 H         1 PAL         0.0439 
     45 H12        11.3995    4.7748    2.6390 H         1 PAL         0.0439 
     46 H13        10.0832    7.1851    3.6138 H         1 PAL         0.0439 
     47 H14         9.3845    5.8731    2.6053 H         1 PAL         0.0439 
     48 H15         8.0710    5.4761    4.5510 H         1 PAL         0.0595 
     49 H16         9.2959    6.2068    5.6430 H         1 PAL         0.0595 
     50 H17         6.7859   -0.9172    4.2338 H         1 PAL         0.4652 
     51 H18         6.5091   -1.3546    2.1655 H         1 PAL         0.1646 
     52 H19         6.7854   -0.8212   -0.1482 H         1 PAL         0.1465 
     53 H20         8.7714    2.6225    0.9739 H         1 PAL         0.0262 
     54 H21         6.0393    0.7142   -1.7194 H         1 PAL         0.0446 
     55 H22         6.3661    2.4777   -1.8181 H         1 PAL         0.0446 
     56 H23         7.4394    0.2907   -3.6721 H         1 PAL         0.0378 
     57 H24         6.2551    1.5784   -4.0794 H         1 PAL         0.0378 
     58 H25         8.4618    2.0791   -4.9165 H         1 PAL         0.3658 
     59 H26         9.7301    0.8712   -3.2450 H         1 PAL         0.0378 
     60 H27        10.2391    2.5907   -3.3481 H         1 PAL         0.0378 
     61 H28         8.9861    3.1436   -1.3483 H         1 PAL         0.0446 
     62 H29        10.0416    1.7314   -1.0042 H         1 PAL         0.0446 
     63 H63         7.9376    3.2609   -3.6694 H         1 PAL         0.0000 
@<TRIPOS>BOND
     1    1    2 1    
     2    1   34 1    
     3    1   35 1    
     4    1   36 1    
     5    2   12 ar   
     6    2    3 ar   
     7    3    8 ar   
     8    3    4 ar   
     9    4    5 ar   
    10    4   37 1    
    11    5    6 ar   
    12    6    7 ar   
    13    6   21 1    
    14    7    8 ar   
    15    8    9 ar   
    16    9   10 ar   
    17    9   16 1    
    18   10   11 2    
    19   10   12 ar   
    20   12   13 1    
    21   13   15 2    
    22   13   14 1    
    23   14   40 1    
    24   15   38 1    
    25   15   39 1    
    26   16   20 1    
    27   16   17 1    
    28   16   41 1    
    29   17   18 1    
    30   17   42 1    
    31   17   43 1    
    32   18   19 1    
    33   18   44 1    
    34   18   45 1    
    35   19   20 1    
    36   19   46 1    
    37   19   47 1    
    38   20   48 1    
    39   20   49 1    
    40   21   22 1    
    41   21   50 1    
    42   22   27 ar   
    43   22   23 ar   
    44   23   24 ar   
    45   23   51 1    
    46   24   25 ar   
    47   24   52 1    
    48   25   26 ar   
    49   25   28 1    
    50   26   27 ar   
    51   26   53 1    
    52   28   33 1    
    53   28   29 1    
    54   29   30 1    
    55   29   54 1    
    56   29   55 1    
    57   30   31 1    
    58   30   56 1    
    59   30   57 1    
    60   31   32 1    
    61   31   58 1    
    62   31   63 1    
    63   32   33 1    
    64   32   59 1    
    65   32   60 1    
    66   33   61 1    
    67   33   62 1    
@<TRIPOS>SUBSTRUCTURE
     1 PAL         1 GROUP             0       ****    0 ROOT    
@<TRIPOS>MOLECULE
6-acetyl-8-cyclopentyl-5-methyl-2-[(5-piperazin-1-yl-2-pyridyl)amino]pyrido[2,3-d]pyrimidin-7-one
64   68    1
SMALL
USER_CHARGES


@<TRIPOS>ATOM
      1 C1          8.4256    2.0145   10.2019 C.3       1 PAL        -0.0814 
      2 C2          8.8610    2.6517    8.9024 C.ar      1 PAL         0.0910 
      3 C3          8.4547    1.9476    7.6649 C.ar      1 PAL        -0.4206 
      4 C4          7.7673    0.7358    7.6490 C.ar      1 PAL         0.5133 
      5 N1          7.3827    0.0794    6.5338 N.ar      1 PAL        -0.7559 
      6 C5          7.7150    0.6834    5.3870 C.ar      1 PAL         0.9320 
      7 N2          8.3793    1.8433    5.2587 N.ar      1 PAL        -0.8135 
      8 C6          8.7478    2.4652    6.4091 C.ar      1 PAL         0.6341 
      9 N3          9.4669    3.6893    6.3241 N.pl3     1 PAL        -0.4117 
     10 C7          9.9005    4.3810    7.4473 C.ar      1 PAL         0.7214 
     11 O1         10.5374    5.4352    7.3967 O.2       1 PAL        -0.6119 
     12 C8          9.5664    3.7969    8.7913 C.ar      1 PAL        -0.2848 
     13 C9         10.0373    4.5164    9.9933 C.2       1 PAL         0.6020 
     14 O2          9.2297    4.9289   10.8193 O.2       1 PAL        -0.5096 
     15 C10        11.5182    4.7059   10.1559 C.3       1 PAL        -0.1929 
     16 C11         9.7522    4.2011    4.9957 C.3       1 PAL         0.0909 
     17 C12        11.2378    4.4522    4.7672 C.3       1 PAL        -0.0924 
     18 C13        11.2645    5.3745    3.5512 C.3       1 PAL        -0.0771 
     19 C14         9.9162    6.1003    3.5411 C.3       1 PAL        -0.0771 
     20 C15         9.1476    5.5786    4.7523 C.3       1 PAL        -0.0924 
     21 N4          7.3314    0.0371    4.1922 N.pl3     1 PAL        -0.8124 
     22 C16         7.5032    0.3649    2.8341 C.ar      1 PAL         0.6024 
     23 C17         6.9859   -0.5170    1.8990 C.ar      1 PAL        -0.2062 
     24 C18         7.1462   -0.2065    0.5532 C.ar      1 PAL        -0.1109 
     25 C19         7.8095    0.9600    0.1889 C.ar      1 PAL         0.0140 
     26 C20         8.2898    1.7759    1.2005 C.ar      1 PAL         0.3764 
     27 N5          8.1532    1.5075    2.5184 N.pl3     1 PAL        -0.6854 
     28 N6          7.9854    1.2998   -1.1572 N.4       1 PAL        -0.6436 
     29 C21         6.7864    1.4755   -1.9881 C.3       1 PAL         0.1900 
     30 C22         7.1351    1.3280   -3.4687 C.3       1 PAL         0.1592 
     31 N7          8.2322    2.2165   -3.8495 N.3       1 PAL        -0.8173 
     32 C23         9.4237    1.9112   -3.0594 C.3       1 PAL         0.1592 
     33 C24         9.1602    2.0789   -1.5631 C.3       1 PAL         0.1900 
     34 H1          7.8673    1.0911    9.9885 H         1 PAL         0.0605 
     35 H2          7.7808    2.7133   10.7549 H         1 PAL         0.0605 
     36 H3          9.3119    1.7754   10.8080 H         1 PAL         0.0605 
     37 H4          7.4875    0.2175    8.5610 H         1 PAL         0.0336 
     38 H5         11.7175    5.2535   11.0888 H         1 PAL         0.0670 
     39 H6         11.9103    5.2795    9.3031 H         1 PAL         0.0670 
     40 H7         12.0115    3.7235   10.1949 H         1 PAL         0.0670 
     41 H8          9.3234    3.3973    4.3792 H         1 PAL         0.0934 
     42 H9         11.6711    4.9263    5.6602 H         1 PAL         0.0595 
     43 H10        11.7463    3.4956    4.5767 H         1 PAL         0.0595 
     44 H11        12.0977    6.0860    3.6489 H         1 PAL         0.0439 
     45 H12        11.3995    4.7748    2.6390 H         1 PAL         0.0439 
     46 H13        10.0832    7.1851    3.6138 H         1 PAL         0.0439 
     47 H14         9.3845    5.8731    2.6053 H         1 PAL         0.0439 
     48 H15         8.0710    5.4761    4.5510 H         1 PAL         0.0595 
     49 H16         9.2959    6.2068    5.6430 H         1 PAL         0.0595 
     50 H17         6.7859   -0.9172    4.2338 H         1 PAL         0.4652 
     51 H18         6.4691   -1.4249    2.1922 H         1 PAL         0.1646 
     52 H19         6.7514   -0.8795   -0.2031 H         1 PAL         0.1465 
     53 H20         8.8157    2.6997    0.9786 H         1 PAL         0.0262 
     54 H21         6.0393    0.7142   -1.7194 H         1 PAL         0.0446 
     55 H22         6.3661    2.4777   -1.8181 H         1 PAL         0.0446 
     56 H23         7.4394    0.2907   -3.6721 H         1 PAL         0.0378 
     57 H24         6.2551    1.5784   -4.0794 H         1 PAL         0.0378 
     58 H25         8.4618    2.0791   -4.9165 H         1 PAL         0.3658 
     59 H26         9.7301    0.8712   -3.2450 H         1 PAL         0.0378 
     60 H27        10.2391    2.5907   -3.3481 H         1 PAL         0.0378 
     61 H28         8.9861    3.1436   -1.3483 H         1 PAL         0.0446 
     62 H29        10.0416    1.7314   -1.0042 H         1 PAL         0.0446 
     63 H63         8.5372    2.1602    3.3162 H         1 PAL         0.0000 
     64 H64         8.3210    0.2684   -1.3405 H         1 PAL         0.0000 
@<TRIPOS>BOND
     1    1    2 1    
     2    1   34 1    
     3    1   35 1    
     4    1   36 1    
     5    2   12 ar   
     6    2    3 ar   
     7    3    8 ar   
     8    3    4 ar   
     9    4    5 ar   
    10    4   37 1    
    11    5    6 ar   
    12    6    7 ar   
    13    6   21 1    
    14    7    8 ar   
    15    8    9 ar   
    16    9   10 ar   
    17    9   16 1    
    18   10   11 2    
    19   10   12 ar   
    20   12   13 1    
    21   13   14 2    
    22   13   15 1    
    23   15   38 1    
    24   15   39 1    
    25   15   40 1    
    26   16   20 1    
    27   16   17 1    
    28   16   41 1    
    29   17   18 1    
    30   17   42 1    
    31   17   43 1    
    32   18   19 1    
    33   18   44 1    
    34   18   45 1    
    35   19   20 1    
    36   19   46 1    
    37   19   47 1    
    38   20   48 1    
    39   20   49 1    
    40   21   22 1    
    41   21   50 1    
    42   22   27 ar   
    43   22   23 ar   
    44   23   24 ar   
    45   23   51 1    
    46   24   25 ar   
    47   24   52 1    
    48   25   26 ar   
    49   25   28 1    
    50   26   27 ar   
    51   26   53 1    
    52   27   63 1    
    53   28   33 1    
    54   28   29 1    
    55   28   64 1    
    56   29   30 1    
    57   29   54 1    
    58   29   55 1    
    59   30   31 1    
    60   30   56 1    
    61   30   57 1    
    62   31   32 1    
    63   31   58 1    
    64   32   33 1    
    65   32   59 1    
    66   32   60 1    
    67   33   61 1    
    68   33   62 1    
@<TRIPOS>SUBSTRUCTURE
     1 PAL         1 GROUP             0       ****    0 ROOT    
@<TRIPOS>MOLECULE
6-acetyl-8-cyclopentyl-5-methyl-2-[(5-piperazin-1-yl-2-pyridyl)amino]pyrido[2,3-d]pyrimidin-7-one
63   67    1
SMALL
USER_CHARGES


@<TRIPOS>ATOM
      1 C1          8.4256    2.0145   10.2019 C.3       1 PAL        -0.0814 
      2 C2          8.8610    2.6517    8.9024 C.ar      1 PAL         0.0910 
      3 C3          8.4547    1.9476    7.6649 C.ar      1 PAL        -0.4206 
      4 C4          7.7673    0.7358    7.6490 C.ar      1 PAL         0.5133 
      5 N1          7.3827    0.0794    6.5338 N.ar      1 PAL        -0.7559 
      6 C5          7.7150    0.6834    5.3870 C.ar      1 PAL         0.9320 
      7 N2          8.3793    1.8433    5.2587 N.ar      1 PAL        -0.8135 
      8 C6          8.7478    2.4652    6.4091 C.ar      1 PAL         0.6341 
      9 N3          9.4669    3.6893    6.3241 N.pl3     1 PAL        -0.4117 
     10 C7          9.9005    4.3810    7.4473 C.ar      1 PAL         0.7214 
     11 O1         10.5374    5.4352    7.3967 O.2       1 PAL        -0.6119 
     12 C8          9.5664    3.7969    8.7913 C.ar      1 PAL        -0.2848 
     13 C9         10.0373    4.5164    9.9933 C.2       1 PAL         0.6020 
     14 O2          9.2297    4.9289   10.8193 O.2       1 PAL        -0.5096 
     15 C10        11.5182    4.7059   10.1559 C.3       1 PAL        -0.1929 
     16 C11         9.7522    4.2011    4.9957 C.3       1 PAL         0.0909 
     17 C12        11.2378    4.4522    4.7672 C.3       1 PAL        -0.0924 
     18 C13        11.2645    5.3745    3.5512 C.3       1 PAL        -0.0771 
     19 C14         9.9162    6.1003    3.5411 C.3       1 PAL        -0.0771 
     20 C15         9.1476    5.5786    4.7523 C.3       1 PAL        -0.0924 
     21 N4          7.3314    0.0371    4.1922 N.pl3     1 PAL        -0.8124 
     22 C16         7.5032    0.3649    2.8341 C.ar      1 PAL         0.6024 
     23 C17         6.9859   -0.5170    1.8990 C.ar      1 PAL        -0.2062 
     24 C18         7.1462   -0.2065    0.5532 C.ar      1 PAL        -0.1109 
     25 C19         7.8095    0.9600    0.1889 C.ar      1 PAL         0.0140 
     26 C20         8.2898    1.7759    1.2005 C.ar      1 PAL         0.3764 
     27 N5          8.1532    1.5075    2.5184 N.ar      1 PAL        -0.6854 
     28 N6          7.9854    1.2998   -1.1572 N.4       1 PAL        -0.6436 
     29 C21         6.7864    1.4755   -1.9881 C.3       1 PAL         0.1900 
     30 C22         7.1351    1.3280   -3.4687 C.3       1 PAL         0.1592 
     31 N7          8.2322    2.2165   -3.8495 N.3       1 PAL        -0.8173 
     32 C23         9.4237    1.9112   -3.0594 C.3       1 PAL         0.1592 
     33 C24         9.1602    2.0789   -1.5631 C.3       1 PAL         0.1900 
     34 H1          7.8673    1.0911    9.9885 H         1 PAL         0.0605 
     35 H2          7.7808    2.7133   10.7549 H         1 PAL         0.0605 
     36 H3          9.3119    1.7754   10.8080 H         1 PAL         0.0605 
     37 H4          7.4875    0.2175    8.5610 H         1 PAL         0.0336 
     38 H5         11.7175    5.2535   11.0888 H         1 PAL         0.0670 
     39 H6         11.9103    5.2795    9.3031 H         1 PAL         0.0670 
     40 H7         12.0115    3.7235   10.1949 H         1 PAL         0.0670 
     41 H8          9.3234    3.3973    4.3792 H         1 PAL         0.0934 
     42 H9         11.6711    4.9263    5.6602 H         1 PAL         0.0595 
     43 H10        11.7463    3.4956    4.5767 H         1 PAL         0.0595 
     44 H11        12.0977    6.0860    3.6489 H         1 PAL         0.0439 
     45 H12        11.3995    4.7748    2.6390 H         1 PAL         0.0439 
     46 H13        10.0832    7.1851    3.6138 H         1 PAL         0.0439 
     47 H14         9.3845    5.8731    2.6053 H         1 PAL         0.0439 
     48 H15         8.0710    5.4761    4.5510 H         1 PAL         0.0595 
     49 H16         9.2959    6.2068    5.6430 H         1 PAL         0.0595 
     50 H17         6.7859   -0.9172    4.2338 H         1 PAL         0.4652 
     51 H18         6.4691   -1.4249    2.1922 H         1 PAL         0.1646 
     52 H19         6.7514   -0.8795   -0.2031 H         1 PAL         0.1465 
     53 H20         8.8157    2.6997    0.9786 H         1 PAL         0.0262 
     54 H21         6.0393    0.7142   -1.7194 H         1 PAL         0.0446 
     55 H22         6.3661    2.4777   -1.8181 H         1 PAL         0.0446 
     56 H23         7.4394    0.2907   -3.6721 H         1 PAL         0.0378 
     57 H24         6.2551    1.5784   -4.0794 H         1 PAL         0.0378 
     58 H25         8.4618    2.0791   -4.9165 H         1 PAL         0.3658 
     59 H26         9.7301    0.8712   -3.2450 H         1 PAL         0.0378 
     60 H27        10.2391    2.5907   -3.3481 H         1 PAL         0.0378 
     61 H28         8.9861    3.1436   -1.3483 H         1 PAL         0.0446 
     62 H29        10.0416    1.7314   -1.0042 H         1 PAL         0.0446 
     63 H63         8.3210    0.2684   -1.3405 H         1 PAL         0.0000 
@<TRIPOS>BOND
     1    1    2 1    
     2    1   34 1    
     3    1   35 1    
     4    1   36 1    
     5    2   12 ar   
     6    2    3 ar   
     7    3    8 ar   
     8    3    4 ar   
     9    4    5 ar   
    10    4   37 1    
    11    5    6 ar   
    12    6    7 ar   
    13    6   21 1    
    14    7    8 ar   
    15    8    9 ar   
    16    9   10 ar   
    17    9   16 1    
    18   10   11 2    
    19   10   12 ar   
    20   12   13 1    
    21   13   14 2    
    22   13   15 1    
    23   15   38 1    
    24   15   39 1    
    25   15   40 1    
    26   16   20 1    
    27   16   17 1    
    28   16   41 1    
    29   17   18 1    
    30   17   42 1    
    31   17   43 1    
    32   18   19 1    
    33   18   44 1    
    34   18   45 1    
    35   19   20 1    
    36   19   46 1    
    37   19   47 1    
    38   20   48 1    
    39   20   49 1    
    40   21   22 1    
    41   21   50 1    
    42   22   27 ar   
    43   22   23 ar   
    44   23   24 ar   
    45   23   51 1    
    46   24   25 ar   
    47   24   52 1    
    48   25   26 ar   
    49   25   28 1    
    50   26   27 ar   
    51   26   53 1    
    52   28   33 1    
    53   28   29 1    
    54   28   63 1    
    55   29   30 1    
    56   29   54 1    
    57   29   55 1    
    58   30   31 1    
    59   30   56 1    
    60   30   57 1    
    61   31   32 1    
    62   31   58 1    
    63   32   33 1    
    64   32   59 1    
    65   32   60 1    
    66   33   61 1    
    67   33   62 1    
@<TRIPOS>SUBSTRUCTURE
     1 PAL         1 GROUP             0       ****    0 ROOT    
@<TRIPOS>MOLECULE
6-acetyl-8-cyclopentyl-5-methyl-2-[(5-piperazin-1-yl-2-pyridyl)amino]pyrido[2,3-d]pyrimidin-7-one
64   68    1
SMALL
USER_CHARGES


@<TRIPOS>ATOM
      1 C1          8.4256    2.0145   10.2019 C.3       1 PAL        -0.0814 
      2 C2          8.8610    2.6517    8.9024 C.ar      1 PAL         0.0910 
      3 C3          8.4547    1.9476    7.6649 C.ar      1 PAL        -0.4206 
      4 C4          7.7673    0.7358    7.6490 C.ar      1 PAL         0.5133 
      5 N1          7.3827    0.0794    6.5338 N.ar      1 PAL        -0.7559 
      6 C5          7.7150    0.6834    5.3870 C.ar      1 PAL         0.9320 
      7 N2          8.3793    1.8433    5.2587 N.ar      1 PAL        -0.8135 
      8 C6          8.7478    2.4652    6.4091 C.ar      1 PAL         0.6341 
      9 N3          9.4669    3.6893    6.3241 N.pl3     1 PAL        -0.4117 
     10 C7          9.9005    4.3810    7.4473 C.ar      1 PAL         0.7214 
     11 O1         10.5374    5.4352    7.3967 O.2       1 PAL        -0.6119 
     12 C8          9.5664    3.7969    8.7913 C.ar      1 PAL        -0.2848 
     13 C9         10.0373    4.5164    9.9933 C.2       1 PAL         0.6020 
     14 O2          9.2293    4.9352   10.8157 O.3       1 PAL        -0.5096 
     15 C10        11.5182    4.7059   10.1559 C.2       1 PAL        -0.1929 
     16 C11         9.7522    4.2011    4.9957 C.3       1 PAL         0.0909 
     17 C12        11.2378    4.4522    4.7672 C.3       1 PAL        -0.0924 
     18 C13        11.2645    5.3745    3.5512 C.3       1 PAL        -0.0771 
     19 C14         9.9162    6.1003    3.5411 C.3       1 PAL        -0.0771 
     20 C15         9.1476    5.5786    4.7523 C.3       1 PAL        -0.0924 
     21 N4          7.3314    0.0371    4.1922 N.pl3     1 PAL        -0.8124 
     22 C16         7.5032    0.3649    2.8341 C.ar      1 PAL         0.6024 
     23 C17         6.9859   -0.5170    1.8990 C.ar      1 PAL        -0.2062 
     24 C18         7.1462   -0.2065    0.5532 C.ar      1 PAL        -0.1109 
     25 C19         7.8095    0.9600    0.1889 C.ar      1 PAL         0.0140 
     26 C20         8.2898    1.7759    1.2005 C.ar      1 PAL         0.3764 
     27 N5          8.1532    1.5075    2.5184 N.pl3     1 PAL        -0.6854 
     28 N6          7.9854    1.2998   -1.1572 N.pl3     1 PAL        -0.6436 
     29 C21         6.7864    1.4755   -1.9881 C.3       1 PAL         0.1900 
     30 C22         7.1351    1.3280   -3.4687 C.3       1 PAL         0.1592 
     31 N7          8.2322    2.2165   -3.8495 N.4       1 PAL        -0.8173 
     32 C23         9.4237    1.9112   -3.0594 C.3       1 PAL         0.1592 
     33 C24         9.1602    2.0789   -1.5631 C.3       1 PAL         0.1900 
     34 H1          7.8673    1.0911    9.9885 H         1 PAL         0.0605 
     35 H2          7.7808    2.7133   10.7549 H         1 PAL         0.0605 
     36 H3          9.3119    1.7754   10.8080 H         1 PAL         0.0605 
     37 H4          7.4875    0.2175    8.5610 H         1 PAL         0.0336 
     38 H5         11.9115    5.2358   11.0359 H         1 PAL         0.0670 
     39 H6         12.2096    4.3148    9.3950 H         1 PAL         0.0670 
     40 H7          8.1523    4.7755   10.6592 H         1 PAL         0.0670 
     41 H8          9.3234    3.3973    4.3792 H         1 PAL         0.0934 
     42 H9         11.6711    4.9263    5.6602 H         1 PAL         0.0595 
     43 H10        11.7463    3.4956    4.5767 H         1 PAL         0.0595 
     44 H11        12.0977    6.0860    3.6489 H         1 PAL         0.0439 
     45 H12        11.3995    4.7748    2.6390 H         1 PAL         0.0439 
     46 H13        10.0832    7.1851    3.6138 H         1 PAL         0.0439 
     47 H14         9.3845    5.8731    2.6053 H         1 PAL         0.0439 
     48 H15         8.0710    5.4761    4.5510 H         1 PAL         0.0595 
     49 H16         9.2959    6.2068    5.6430 H         1 PAL         0.0595 
     50 H17         6.7859   -0.9172    4.2338 H         1 PAL         0.4652 
     51 H18         6.5091   -1.3546    2.1655 H         1 PAL         0.1646 
     52 H19         6.7854   -0.8212   -0.1482 H         1 PAL         0.1465 
     53 H20         8.7714    2.6225    0.9739 H         1 PAL         0.0262 
     54 H21         6.0393    0.7142   -1.7194 H         1 PAL         0.0446 
     55 H22         6.3661    2.4777   -1.8181 H         1 PAL         0.0446 
     56 H23         7.4394    0.2907   -3.6721 H         1 PAL         0.0378 
     57 H24         6.2551    1.5784   -4.0794 H         1 PAL         0.0378 
     58 H25         8.4618    2.0791   -4.9165 H         1 PAL         0.3658 
     59 H26         9.7301    0.8712   -3.2450 H         1 PAL         0.0378 
     60 H27        10.2391    2.5907   -3.3481 H         1 PAL         0.0378 
     61 H28         8.9861    3.1436   -1.3483 H         1 PAL         0.0446 
     62 H29        10.0416    1.7314   -1.0042 H         1 PAL         0.0446 
     63 H63         7.9376    3.2609   -3.6694 H         1 PAL         0.0000 
     64 H64         8.5372    2.1602    3.3162 H         1 PAL         0.0000 
@<TRIPOS>BOND
     1    1    2 1    
     2    1   34 1    
     3    1   35 1    
     4    1   36 1    
     5    2   12 ar   
     6    2    3 ar   
     7    3    8 ar   
     8    3    4 ar   
     9    4    5 ar   
    10    4   37 1    
    11    5    6 ar   
    12    6    7 ar   
    13    6   21 1    
    14    7    8 ar   
    15    8    9 ar   
    16    9   10 ar   
    17    9   16 1    
    18   10   11 2    
    19   10   12 ar   
    20   12   13 1    
    21   13   15 2    
    22   13   14 1    
    23   14   40 1    
    24   15   38 1    
    25   15   39 1    
    26   16   20 1    
    27   16   17 1    
    28   16   41 1    
    29   17   18 1    
    30   17   42 1    
    31   17   43 1    
    32   18   19 1    
    33   18   44 1    
    34   18   45 1    
    35   19   20 1    
    36   19   46 1    
    37   19   47 1    
    38   20   48 1    
    39   20   49 1    
    40   21   22 1    
    41   21   50 1    
    42   22   27 ar   
    43   22   23 ar   
    44   23   24 ar   
    45   23   51 1    
    46   24   25 ar   
    47   24   52 1    
    48   25   26 ar   
    49   25   28 1    
    50   26   27 ar   
    51   26   53 1    
    52   27   64 1    
    53   28   33 1    
    54   28   29 1    
    55   29   30 1    
    56   29   54 1    
    57   29   55 1    
    58   30   31 1    
    59   30   56 1    
    60   30   57 1    
    61   31   32 1    
    62   31   58 1    
    63   31   63 1    
    64   32   33 1    
    65   32   59 1    
    66   32   60 1    
    67   33   61 1    
    68   33   62 1    
@<TRIPOS>SUBSTRUCTURE
     1 PAL         1 GROUP             0       ****    0 ROOT    
@<TRIPOS>MOLECULE
6-acetyl-8-cyclopentyl-5-methyl-2-[(5-piperazin-1-yl-2-pyridyl)amino]pyrido[2,3-d]pyrimidin-7-one
63   67    1
SMALL
USER_CHARGES


@<TRIPOS>ATOM
      1 C1          4.9750   -4.3687    8.2246 C.3       1 PAL        -0.0814 
      2 C2          4.8939   -4.3277    6.7159 C.ar      1 PAL         0.0910 
      3 C3          5.5384   -3.1663    6.0616 C.ar      1 PAL        -0.4206 
      4 C4          6.1398   -2.1177    6.7544 C.ar      1 PAL         0.5133 
      5 N1          6.7373   -1.0526    6.1789 N.ar      1 PAL        -0.7559 
      6 C5          6.7185   -1.0565    4.8410 C.ar      1 PAL         0.9320 
      7 N2          6.1704   -1.9953    4.0528 N.ar      1 PAL        -0.8135 
      8 C6          5.5784   -3.0463    4.6779 C.ar      1 PAL         0.6341 
      9 N3          4.9705   -4.0587    3.8852 N.pl3     1 PAL        -0.4117 
     10 C7          4.3257   -5.1561    4.4402 C.ar      1 PAL         0.7214 
     11 O1          3.7799   -6.0372    3.7729 O.2       1 PAL        -0.6119 
     12 C8          4.3010   -5.2588    5.9395 C.ar      1 PAL        -0.2848 
     13 C9          3.6031   -6.4143    6.5411 C.2       1 PAL         0.6020 
     14 O2          4.2165   -7.1990    7.2571 O.2       1 PAL        -0.5096 
     15 C10         2.1387   -6.5731    6.2481 C.3       1 PAL        -0.1929 
     16 C11         5.0348   -3.9014    2.4433 C.3       1 PAL         0.0909 
     17 C12         3.6612   -3.9388    1.7844 C.3       1 PAL        -0.0924 
     18 C13         3.9735   -4.2125    0.3155 C.3       1 PAL        -0.0771 
     19 C14         5.3257   -4.9307    0.2972 C.3       1 PAL        -0.0771 
     20 C15         5.7574   -5.0537    1.7562 C.3       1 PAL        -0.0924 
     21 N4          7.3343    0.0355    4.1922 N.2       1 PAL        -0.8124 
     22 C16         7.5051    0.3638    2.8341 C.ar      1 PAL         0.6024 
     23 C17         6.9879   -0.5181    1.8990 C.ar      1 PAL        -0.2062 
     24 C18         7.1448   -0.2057    0.5532 C.ar      1 PAL        -0.1109 
     25 C19         7.8094    0.9601    0.1889 C.ar      1 PAL         0.0140 
     26 C20         8.2920    1.7746    1.2005 C.ar      1 PAL         0.3764 
     27 N5          8.1555    1.5062    2.5184 N.pl3     1 PAL        -0.6854 
     28 N6          7.9853    1.2998   -1.1572 N.pl3     1 PAL        -0.6436 
     29 C21         6.7863    1.4784   -1.9874 C.3       1 PAL         0.1900 
     30 C22         7.1339    1.3305   -3.4682 C.3       1 PAL         0.1592 
     31 N7          8.2327    2.2167   -3.8494 N.4       1 PAL        -0.8173 
     32 C23         9.4240    1.9086   -3.0600 C.3       1 PAL         0.1592 
     33 C24         9.1616    2.0765   -1.5635 C.3       1 PAL         0.1900 
     34 H1          5.5140   -3.4810    8.5871 H         1 PAL         0.0605 
     35 H2          5.5108   -5.2767    8.5384 H         1 PAL         0.0605 
     36 H3          3.9590   -4.3784    8.6462 H         1 PAL         0.0605 
     37 H4          6.1676   -2.0817    7.8391 H         1 PAL         0.0336 
     38 H5          1.7577   -7.4696    6.7589 H         1 PAL         0.0670 
     39 H6          1.9913   -6.6787    5.1631 H         1 PAL         0.0670 
     40 H7          1.5947   -5.6871    6.6075 H         1 PAL         0.0670 
     41 H8          5.5495   -2.9317    2.3743 H         1 PAL         0.0934 
     42 H9          3.0582   -4.7387    2.2389 H         1 PAL         0.0595 
     43 H10         3.1577   -2.9719    1.9310 H         1 PAL         0.0595 
     44 H11         3.1827   -4.8437   -0.1160 H         1 PAL         0.0439 
     45 H12         4.0223   -3.2600   -0.2326 H         1 PAL         0.0439 
     46 H13         5.2086   -5.9210   -0.1671 H         1 PAL         0.0439 
     47 H14         6.0483   -4.3372   -0.2821 H         1 PAL         0.0439 
     48 H15         6.8435   -4.9324    1.8818 H         1 PAL         0.0595 
     49 H16         5.4403   -6.0060    2.2064 H         1 PAL         0.0595 
     50 H17         8.5639    2.2016    3.2665 H         1 PAL         0.4652 
     51 H18         6.5122   -1.3564    2.1655 H         1 PAL         0.1646 
     52 H19         6.7820   -0.8192   -0.1481 H         1 PAL         0.1465 
     53 H20         8.7755    2.6201    0.9738 H         1 PAL         0.0262 
     54 H21         6.0377    0.7186   -1.7185 H         1 PAL         0.0446 
     55 H22         6.3683    2.4815   -1.8169 H         1 PAL         0.0446 
     56 H23         7.4358    0.2926   -3.6721 H         1 PAL         0.0378 
     57 H24         6.2541    1.5831   -4.0784 H         1 PAL         0.0378 
     58 H25         8.4614    2.0792   -4.9165 H         1 PAL         0.3658 
     59 H26         9.7280    0.8680   -3.2460 H         1 PAL         0.0378 
     60 H27        10.2407    2.5864   -3.3489 H         1 PAL         0.0378 
     61 H28         8.9900    3.1415   -1.3483 H         1 PAL         0.0446 
     62 H29        10.0426    1.7269   -1.0051 H         1 PAL         0.0446 
     63 H63         7.9405    3.2617   -3.6688 H         1 PAL         0.0000 
@<TRIPOS>BOND
     1    1    2 1    
     2    1   34 1    
     3    1   35 1    
     4    1   36 1    
     5    2   12 ar   
     6    2    3 ar   
     7    3    8 ar   
     8    3    4 ar   
     9    4    5 ar   
    10    4   37 1    
    11    5    6 ar   
    12    6    7 ar   
    13    6   21 1    
    14    7    8 ar   
    15    8    9 ar   
    16    9   10 ar   
    17    9   16 1    
    18   10   11 2    
    19   10   12 ar   
    20   12   13 1    
    21   13   14 2    
    22   13   15 1    
    23   15   38 1    
    24   15   39 1    
    25   15   40 1    
    26   16   20 1    
    27   16   17 1    
    28   16   41 1    
    29   17   18 1    
    30   17   42 1    
    31   17   43 1    
    32   18   19 1    
    33   18   44 1    
    34   18   45 1    
    35   19   20 1    
    36   19   46 1    
    37   19   47 1    
    38   20   48 1    
    39   20   49 1    
    40   21   22 2    
    41   22   23 ar   
    42   22   27 ar   
    43   23   24 ar   
    44   23   51 1    
    45   24   25 ar   
    46   24   52 1    
    47   25   26 ar   
    48   25   28 1    
    49   26   27 ar   
    50   26   53 1    
    51   27   50 1    
    52   28   33 1    
    53   28   29 1    
    54   29   30 1    
    55   29   54 1    
    56   29   55 1    
    57   30   31 1    
    58   30   56 1    
    59   30   57 1    
    60   31   32 1    
    61   31   58 1    
    62   31   63 1    
    63   32   33 1    
    64   32   59 1    
    65   32   60 1    
    66   33   61 1    
    67   33   62 1    
@<TRIPOS>SUBSTRUCTURE
     1 PAL         1 GROUP             0       ****    0 ROOT    
@<TRIPOS>MOLECULE
6-acetyl-8-cyclopentyl-5-methyl-2-[(5-piperazin-1-yl-2-pyridyl)amino]pyrido[2,3-d]pyrimidin-7-one
63   67    1
SMALL
USER_CHARGES


@<TRIPOS>ATOM
      1 C1          8.4304    2.0117   10.2019 C.3       1 PAL        -0.0814 
      2 C2          8.8647    2.6496    8.9024 C.ar      1 PAL         0.0910 
      3 C3          8.4582    1.9456    7.6649 C.ar      1 PAL        -0.4206 
      4 C4          7.7716    0.7333    7.6489 C.ar      1 PAL         0.5133 
      5 N1          7.3868    0.0770    6.5337 N.ar      1 PAL        -0.7559 
      6 C5          7.7181    0.6816    5.3870 C.ar      1 PAL         0.9320 
      7 N2          8.3815    1.8420    5.2587 N.ar      1 PAL        -0.8135 
      8 C6          8.7502    2.4638    6.4091 C.ar      1 PAL         0.6341 
      9 N3          9.4684    3.6884    6.3241 N.pl3     1 PAL        -0.4117 
     10 C7          9.9022    4.3801    7.4473 C.ar      1 PAL         0.7214 
     11 O1         10.5383    5.4347    7.3966 O.2       1 PAL        -0.6119 
     12 C8          9.5692    3.7953    8.7913 C.ar      1 PAL        -0.2848 
     13 C9         10.0403    4.5147    9.9932 C.2       1 PAL         0.6020 
     14 O2          9.2329    4.9264   10.8198 O.2       1 PAL        -0.5096 
     15 C10        11.5212    4.7052   10.1551 C.3       1 PAL        -0.1929 
     16 C11         9.7526    4.2009    4.9957 C.3       1 PAL         0.0909 
     17 C12        11.2379    4.4531    4.7664 C.3       1 PAL        -0.0924 
     18 C13        11.2633    5.3758    3.5507 C.3       1 PAL        -0.0771 
     19 C14         9.9145    6.1007    3.5416 C.3       1 PAL        -0.0771 
     20 C15         9.1470    5.5780    4.7531 C.3       1 PAL        -0.0924 
     21 N4          7.3343    0.0355    4.1922 N.2       1 PAL        -0.8124 
     22 C16         7.5051    0.3638    2.8341 C.ar      1 PAL         0.6024 
     23 C17         6.9879   -0.5181    1.8990 C.ar      1 PAL        -0.2062 
     24 C18         7.1448   -0.2057    0.5532 C.ar      1 PAL        -0.1109 
     25 C19         7.8094    0.9601    0.1889 C.ar      1 PAL         0.0140 
     26 C20         8.2920    1.7746    1.2005 C.ar      1 PAL         0.3764 
     27 N5          8.1555    1.5062    2.5184 N.pl3     1 PAL        -0.6854 
     28 N6          7.9853    1.2998   -1.1572 N.pl3     1 PAL        -0.6436 
     29 C21         6.7863    1.4784   -1.9874 C.3       1 PAL         0.1900 
     30 C22         7.1339    1.3305   -3.4682 C.3       1 PAL         0.1592 
     31 N7          8.2327    2.2167   -3.8494 N.4       1 PAL        -0.8173 
     32 C23         9.4240    1.9086   -3.0600 C.3       1 PAL         0.1592 
     33 C24         9.1616    2.0765   -1.5635 C.3       1 PAL         0.1900 
     34 H1          7.8726    1.0879    9.9885 H         1 PAL         0.0605 
     35 H2          7.7854    2.7099   10.7555 H         1 PAL         0.0605 
     36 H3          9.3172    1.7730   10.8075 H         1 PAL         0.0605 
     37 H4          7.4927    0.2145    8.5609 H         1 PAL         0.0336 
     38 H5         11.7206    5.2527   11.0881 H         1 PAL         0.0670 
     39 H6         11.9123    5.2793    9.3022 H         1 PAL         0.0670 
     40 H7         12.0151    3.7231   10.1934 H         1 PAL         0.0670 
     41 H8          9.3241    3.3970    4.3792 H         1 PAL         0.0934 
     42 H9         11.6714    4.9272    5.6594 H         1 PAL         0.0595 
     43 H10        11.7470    3.4969    4.5753 H         1 PAL         0.0595 
     44 H11        12.0961    6.0878    3.6482 H         1 PAL         0.0439 
     45 H12        11.3982    4.7764    2.6383 H         1 PAL         0.0439 
     46 H13        10.0808    7.1856    3.6146 H         1 PAL         0.0439 
     47 H14         9.3824    5.8734    2.6061 H         1 PAL         0.0439 
     48 H15         8.0703    5.4749    4.5524 H         1 PAL         0.0595 
     49 H16         9.2953    6.2060    5.6439 H         1 PAL         0.0595 
     50 H17         8.5639    2.2016    3.2665 H         1 PAL         0.4652 
     51 H18         6.5122   -1.3564    2.1655 H         1 PAL         0.1646 
     52 H19         6.7820   -0.8192   -0.1481 H         1 PAL         0.1465 
     53 H20         8.7755    2.6201    0.9738 H         1 PAL         0.0262 
     54 H21         6.0377    0.7186   -1.7185 H         1 PAL         0.0446 
     55 H22         6.3683    2.4815   -1.8169 H         1 PAL         0.0446 
     56 H23         7.4358    0.2926   -3.6721 H         1 PAL         0.0378 
     57 H24         6.2541    1.5831   -4.0784 H         1 PAL         0.0378 
     58 H25         8.4614    2.0792   -4.9165 H         1 PAL         0.3658 
     59 H26         9.7280    0.8680   -3.2460 H         1 PAL         0.0378 
     60 H27        10.2407    2.5864   -3.3489 H         1 PAL         0.0378 
     61 H28         8.9900    3.1415   -1.3483 H         1 PAL         0.0446 
     62 H29        10.0426    1.7269   -1.0051 H         1 PAL         0.0446 
     63 H63         7.9405    3.2617   -3.6688 H         1 PAL         0.0000 
@<TRIPOS>BOND
     1    1    2 1    
     2    1   34 1    
     3    1   35 1    
     4    1   36 1    
     5    2   12 ar   
     6    2    3 ar   
     7    3    8 ar   
     8    3    4 ar   
     9    4    5 ar   
    10    4   37 1    
    11    5    6 ar   
    12    6    7 ar   
    13    6   21 1    
    14    7    8 ar   
    15    8    9 ar   
    16    9   10 ar   
    17    9   16 1    
    18   10   11 2    
    19   10   12 ar   
    20   12   13 1    
    21   13   14 2    
    22   13   15 1    
    23   15   38 1    
    24   15   39 1    
    25   15   40 1    
    26   16   20 1    
    27   16   17 1    
    28   16   41 1    
    29   17   18 1    
    30   17   42 1    
    31   17   43 1    
    32   18   19 1    
    33   18   44 1    
    34   18   45 1    
    35   19   20 1    
    36   19   46 1    
    37   19   47 1    
    38   20   48 1    
    39   20   49 1    
    40   21   22 2    
    41   22   23 ar   
    42   22   27 ar   
    43   23   24 ar   
    44   23   51 1    
    45   24   25 ar   
    46   24   52 1    
    47   25   26 ar   
    48   25   28 1    
    49   26   27 ar   
    50   26   53 1    
    51   27   50 1    
    52   28   33 1    
    53   28   29 1    
    54   29   30 1    
    55   29   54 1    
    56   29   55 1    
    57   30   31 1    
    58   30   56 1    
    59   30   57 1    
    60   31   32 1    
    61   31   58 1    
    62   31   63 1    
    63   32   33 1    
    64   32   59 1    
    65   32   60 1    
    66   33   61 1    
    67   33   62 1    
@<TRIPOS>SUBSTRUCTURE
     1 PAL         1 GROUP             0       ****    0 ROOT    
@<TRIPOS>MOLECULE
6-acetyl-8-cyclopentyl-5-methyl-2-[(5-piperazin-1-yl-2-pyridyl)amino]pyrido[2,3-d]pyrimidin-7-one
63   67    1
SMALL
USER_CHARGES


@<TRIPOS>ATOM
      1 C1          8.4256    2.0145   10.2019 C.3       1 PAL        -0.0814 
      2 C2          8.8610    2.6517    8.9024 C.ar      1 PAL         0.0910 
      3 C3          8.4547    1.9476    7.6649 C.ar      1 PAL        -0.4206 
      4 C4          7.7673    0.7358    7.6490 C.ar      1 PAL         0.5133 
      5 N1          7.3827    0.0794    6.5338 N.ar      1 PAL        -0.7559 
      6 C5          7.7150    0.6834    5.3870 C.ar      1 PAL         0.9320 
      7 N2          8.3793    1.8433    5.2587 N.ar      1 PAL        -0.8135 
      8 C6          8.7478    2.4652    6.4091 C.ar      1 PAL         0.6341 
      9 N3          9.4669    3.6893    6.3241 N.pl3     1 PAL        -0.4117 
     10 C7          9.9005    4.3810    7.4473 C.ar      1 PAL         0.7214 
     11 O1         10.5374    5.4352    7.3967 O.2       1 PAL        -0.6119 
     12 C8          9.5664    3.7969    8.7913 C.ar      1 PAL        -0.2848 
     13 C9         10.0373    4.5164    9.9933 C.2       1 PAL         0.6020 
     14 O2          9.2293    4.9352   10.8157 O.3       1 PAL        -0.5096 
     15 C10        11.5182    4.7059   10.1559 C.2       1 PAL        -0.1929 
     16 C11         9.7522    4.2011    4.9957 C.3       1 PAL         0.0909 
     17 C12        11.2378    4.4522    4.7672 C.3       1 PAL        -0.0924 
     18 C13        11.2645    5.3745    3.5512 C.3       1 PAL        -0.0771 
     19 C14         9.9162    6.1003    3.5411 C.3       1 PAL        -0.0771 
     20 C15         9.1476    5.5786    4.7523 C.3       1 PAL        -0.0924 
     21 N4          7.3314    0.0371    4.1922 N.pl3     1 PAL        -0.8124 
     22 C16         7.5032    0.3649    2.8341 C.ar      1 PAL         0.6024 
     23 C17         6.9859   -0.5170    1.8990 C.ar      1 PAL        -0.2062 
     24 C18         7.1462   -0.2065    0.5532 C.ar      1 PAL        -0.1109 
     25 C19         7.8095    0.9600    0.1889 C.ar      1 PAL         0.0140 
     26 C20         8.2898    1.7759    1.2005 C.ar      1 PAL         0.3764 
     27 N5          8.1532    1.5075    2.5184 N.pl3     1 PAL        -0.6854 
     28 N6          7.9854    1.2998   -1.1572 N.pl3     1 PAL        -0.6436 
     29 C21         6.7864    1.4755   -1.9881 C.3       1 PAL         0.1900 
     30 C22         7.1351    1.3280   -3.4687 C.3       1 PAL         0.1592 
     31 N7          8.2322    2.2165   -3.8495 N.3       1 PAL        -0.8173 
     32 C23         9.4237    1.9112   -3.0594 C.3       1 PAL         0.1592 
     33 C24         9.1602    2.0789   -1.5631 C.3       1 PAL         0.1900 
     34 H1          7.8673    1.0911    9.9885 H         1 PAL         0.0605 
     35 H2          7.7808    2.7133   10.7549 H         1 PAL         0.0605 
     36 H3          9.3119    1.7754   10.8080 H         1 PAL         0.0605 
     37 H4          7.4875    0.2175    8.5610 H         1 PAL         0.0336 
     38 H5         11.9115    5.2358   11.0359 H         1 PAL         0.0670 
     39 H6         12.2096    4.3148    9.3950 H         1 PAL         0.0670 
     40 H7          8.1523    4.7755   10.6592 H         1 PAL         0.0670 
     41 H8          9.3234    3.3973    4.3792 H         1 PAL         0.0934 
     42 H9         11.6711    4.9263    5.6602 H         1 PAL         0.0595 
     43 H10        11.7463    3.4956    4.5767 H         1 PAL         0.0595 
     44 H11        12.0977    6.0860    3.6489 H         1 PAL         0.0439 
     45 H12        11.3995    4.7748    2.6390 H         1 PAL         0.0439 
     46 H13        10.0832    7.1851    3.6138 H         1 PAL         0.0439 
     47 H14         9.3845    5.8731    2.6053 H         1 PAL         0.0439 
     48 H15         8.0710    5.4761    4.5510 H         1 PAL         0.0595 
     49 H16         9.2959    6.2068    5.6430 H         1 PAL         0.0595 
     50 H17         6.7859   -0.9172    4.2338 H         1 PAL         0.4652 
     51 H18         6.5091   -1.3546    2.1655 H         1 PAL         0.1646 
     52 H19         6.7854   -0.8212   -0.1482 H         1 PAL         0.1465 
     53 H20         8.7714    2.6225    0.9739 H         1 PAL         0.0262 
     54 H21         6.0393    0.7142   -1.7194 H         1 PAL         0.0446 
     55 H22         6.3661    2.4777   -1.8181 H         1 PAL         0.0446 
     56 H23         7.4394    0.2907   -3.6721 H         1 PAL         0.0378 
     57 H24         6.2551    1.5784   -4.0794 H         1 PAL         0.0378 
     58 H25         8.4618    2.0791   -4.9165 H         1 PAL         0.3658 
     59 H26         9.7301    0.8712   -3.2450 H         1 PAL         0.0378 
     60 H27        10.2391    2.5907   -3.3481 H         1 PAL         0.0378 
     61 H28         8.9861    3.1436   -1.3483 H         1 PAL         0.0446 
     62 H29        10.0416    1.7314   -1.0042 H         1 PAL         0.0446 
     63 H63         8.5372    2.1602    3.3162 H         1 PAL         0.0000 
@<TRIPOS>BOND
     1    1    2 1    
     2    1   34 1    
     3    1   35 1    
     4    1   36 1    
     5    2   12 ar   
     6    2    3 ar   
     7    3    8 ar   
     8    3    4 ar   
     9    4    5 ar   
    10    4   37 1    
    11    5    6 ar   
    12    6    7 ar   
    13    6   21 1    
    14    7    8 ar   
    15    8    9 ar   
    16    9   10 ar   
    17    9   16 1    
    18   10   11 2    
    19   10   12 ar   
    20   12   13 1    
    21   13   15 2    
    22   13   14 1    
    23   14   40 1    
    24   15   38 1    
    25   15   39 1    
    26   16   20 1    
    27   16   17 1    
    28   16   41 1    
    29   17   18 1    
    30   17   42 1    
    31   17   43 1    
    32   18   19 1    
    33   18   44 1    
    34   18   45 1    
    35   19   20 1    
    36   19   46 1    
    37   19   47 1    
    38   20   48 1    
    39   20   49 1    
    40   21   22 1    
    41   21   50 1    
    42   22   27 ar   
    43   22   23 ar   
    44   23   24 ar   
    45   23   51 1    
    46   24   25 ar   
    47   24   52 1    
    48   25   26 ar   
    49   25   28 1    
    50   26   27 ar   
    51   26   53 1    
    52   27   63 1    
    53   28   33 1    
    54   28   29 1    
    55   29   30 1    
    56   29   54 1    
    57   29   55 1    
    58   30   31 1    
    59   30   56 1    
    60   30   57 1    
    61   31   32 1    
    62   31   58 1    
    63   32   33 1    
    64   32   59 1    
    65   32   60 1    
    66   33   61 1    
    67   33   62 1    
@<TRIPOS>SUBSTRUCTURE
     1 PAL         1 GROUP             0       ****    0 ROOT    
@<TRIPOS>MOLECULE
6-acetyl-8-cyclopentyl-5-methyl-2-[(5-piperazin-1-yl-2-pyridyl)amino]pyrido[2,3-d]pyrimidin-7-one
62   66    1
SMALL
USER_CHARGES


@<TRIPOS>ATOM
      1 C1          8.4256    2.0145   10.2019 C.3       1 PAL        -0.0814 
      2 C2          8.8610    2.6517    8.9024 C.ar      1 PAL         0.0910 
      3 C3          8.4547    1.9476    7.6649 C.ar      1 PAL        -0.4206 
      4 C4          7.7673    0.7358    7.6490 C.ar      1 PAL         0.5133 
      5 N1          7.3827    0.0794    6.5338 N.ar      1 PAL        -0.7559 
      6 C5          7.7150    0.6834    5.3870 C.ar      1 PAL         0.9320 
      7 N2          8.3793    1.8433    5.2587 N.ar      1 PAL        -0.8135 
      8 C6          8.7478    2.4652    6.4091 C.ar      1 PAL         0.6341 
      9 N3          9.4669    3.6893    6.3241 N.pl3     1 PAL        -0.4117 
     10 C7          9.9005    4.3810    7.4473 C.ar      1 PAL         0.7214 
     11 O1         10.5374    5.4352    7.3967 O.2       1 PAL        -0.6119 
     12 C8          9.5664    3.7969    8.7913 C.ar      1 PAL        -0.2848 
     13 C9         10.0373    4.5164    9.9933 C.2       1 PAL         0.6020 
     14 O2          9.2293    4.9352   10.8157 O.3       1 PAL        -0.5096 
     15 C10        11.5182    4.7059   10.1559 C.2       1 PAL        -0.1929 
     16 C11         9.7522    4.2011    4.9957 C.3       1 PAL         0.0909 
     17 C12        11.2378    4.4522    4.7672 C.3       1 PAL        -0.0924 
     18 C13        11.2645    5.3745    3.5512 C.3       1 PAL        -0.0771 
     19 C14         9.9162    6.1003    3.5411 C.3       1 PAL        -0.0771 
     20 C15         9.1476    5.5786    4.7523 C.3       1 PAL        -0.0924 
     21 N4          7.3314    0.0371    4.1922 N.pl3     1 PAL        -0.8124 
     22 C16         7.5032    0.3649    2.8341 C.ar      1 PAL         0.6024 
     23 C17         6.9859   -0.5170    1.8990 C.ar      1 PAL        -0.2062 
     24 C18         7.1462   -0.2065    0.5532 C.ar      1 PAL        -0.1109 
     25 C19         7.8095    0.9600    0.1889 C.ar      1 PAL         0.0140 
     26 C20         8.2898    1.7759    1.2005 C.ar      1 PAL         0.3764 
     27 N5          8.1532    1.5075    2.5184 N.ar      1 PAL        -0.6854 
     28 N6          7.9854    1.2998   -1.1572 N.pl3     1 PAL        -0.6436 
     29 C21         6.7864    1.4755   -1.9881 C.3       1 PAL         0.1900 
     30 C22         7.1351    1.3280   -3.4687 C.3       1 PAL         0.1592 
     31 N7          8.2322    2.2165   -3.8495 N.3       1 PAL        -0.8173 
     32 C23         9.4237    1.9112   -3.0594 C.3       1 PAL         0.1592 
     33 C24         9.1602    2.0789   -1.5631 C.3       1 PAL         0.1900 
     34 H1          7.8673    1.0911    9.9885 H         1 PAL         0.0605 
     35 H2          7.7808    2.7133   10.7549 H         1 PAL         0.0605 
     36 H3          9.3119    1.7754   10.8080 H         1 PAL         0.0605 
     37 H4          7.4875    0.2175    8.5610 H         1 PAL         0.0336 
     38 H5         11.9115    5.2358   11.0359 H         1 PAL         0.0670 
     39 H6         12.2096    4.3148    9.3950 H         1 PAL         0.0670 
     40 H7          8.1523    4.7755   10.6592 H         1 PAL         0.0670 
     41 H8          9.3234    3.3973    4.3792 H         1 PAL         0.0934 
     42 H9         11.6711    4.9263    5.6602 H         1 PAL         0.0595 
     43 H10        11.7463    3.4956    4.5767 H         1 PAL         0.0595 
     44 H11        12.0977    6.0860    3.6489 H         1 PAL         0.0439 
     45 H12        11.3995    4.7748    2.6390 H         1 PAL         0.0439 
     46 H13        10.0832    7.1851    3.6138 H         1 PAL         0.0439 
     47 H14         9.3845    5.8731    2.6053 H         1 PAL         0.0439 
     48 H15         8.0710    5.4761    4.5510 H         1 PAL         0.0595 
     49 H16         9.2959    6.2068    5.6430 H         1 PAL         0.0595 
     50 H17         6.7859   -0.9172    4.2338 H         1 PAL         0.4652 
     51 H18         6.5091   -1.3546    2.1655 H         1 PAL         0.1646 
     52 H19         6.7854   -0.8212   -0.1482 H         1 PAL         0.1465 
     53 H20         8.7714    2.6225    0.9739 H         1 PAL         0.0262 
     54 H21         6.0393    0.7142   -1.7194 H         1 PAL         0.0446 
     55 H22         6.3661    2.4777   -1.8181 H         1 PAL         0.0446 
     56 H23         7.4394    0.2907   -3.6721 H         1 PAL         0.0378 
     57 H24         6.2551    1.5784   -4.0794 H         1 PAL         0.0378 
     58 H25         8.4618    2.0791   -4.9165 H         1 PAL         0.3658 
     59 H26         9.7301    0.8712   -3.2450 H         1 PAL         0.0378 
     60 H27        10.2391    2.5907   -3.3481 H         1 PAL         0.0378 
     61 H28         8.9861    3.1436   -1.3483 H         1 PAL         0.0446 
     62 H29        10.0416    1.7314   -1.0042 H         1 PAL         0.0446 
@<TRIPOS>BOND
     1    1    2 1    
     2    1   34 1    
     3    1   35 1    
     4    1   36 1    
     5    2   12 ar   
     6    2    3 ar   
     7    3    8 ar   
     8    3    4 ar   
     9    4    5 ar   
    10    4   37 1    
    11    5    6 ar   
    12    6    7 ar   
    13    6   21 1    
    14    7    8 ar   
    15    8    9 ar   
    16    9   10 ar   
    17    9   16 1    
    18   10   11 2    
    19   10   12 ar   
    20   12   13 1    
    21   13   15 2    
    22   13   14 1    
    23   14   40 1    
    24   15   38 1    
    25   15   39 1    
    26   16   20 1    
    27   16   17 1    
    28   16   41 1    
    29   17   18 1    
    30   17   42 1    
    31   17   43 1    
    32   18   19 1    
    33   18   44 1    
    34   18   45 1    
    35   19   20 1    
    36   19   46 1    
    37   19   47 1    
    38   20   48 1    
    39   20   49 1    
    40   21   22 1    
    41   21   50 1    
    42   22   27 ar   
    43   22   23 ar   
    44   23   24 ar   
    45   23   51 1    
    46   24   25 ar   
    47   24   52 1    
    48   25   26 ar   
    49   25   28 1    
    50   26   27 ar   
    51   26   53 1    
    52   28   33 1    
    53   28   29 1    
    54   29   30 1    
    55   29   54 1    
    56   29   55 1    
    57   30   31 1    
    58   30   56 1    
    59   30   57 1    
    60   31   32 1    
    61   31   58 1    
    62   32   33 1    
    63   32   59 1    
    64   32   60 1    
    65   33   61 1    
    66   33   62 1    
@<TRIPOS>SUBSTRUCTURE
     1 PAL         1 GROUP             0       ****    0 ROOT    
@<TRIPOS>MOLECULE
6-acetyl-8-cyclopentyl-5-methyl-2-[(5-piperazin-1-yl-2-pyridyl)amino]pyrido[2,3-d]pyrimidin-7-one
62   66    1
SMALL
USER_CHARGES


@<TRIPOS>ATOM
      1 C1          8.4256    2.0145   10.2019 C.3       1 PAL        -0.0814 
      2 C2          8.8610    2.6517    8.9024 C.ar      1 PAL         0.0910 
      3 C3          8.4547    1.9476    7.6649 C.ar      1 PAL        -0.4206 
      4 C4          7.7673    0.7358    7.6490 C.ar      1 PAL         0.5133 
      5 N1          7.3827    0.0794    6.5338 N.ar      1 PAL        -0.7559 
      6 C5          7.7150    0.6834    5.3870 C.ar      1 PAL         0.9320 
      7 N2          8.3793    1.8433    5.2587 N.ar      1 PAL        -0.8135 
      8 C6          8.7478    2.4652    6.4091 C.ar      1 PAL         0.6341 
      9 N3          9.4669    3.6893    6.3241 N.pl3     1 PAL        -0.4117 
     10 C7          9.9005    4.3810    7.4473 C.ar      1 PAL         0.7214 
     11 O1         10.5374    5.4352    7.3967 O.2       1 PAL        -0.6119 
     12 C8          9.5664    3.7969    8.7913 C.ar      1 PAL        -0.2848 
     13 C9         10.0373    4.5164    9.9933 C.2       1 PAL         0.6020 
     14 O2          9.2293    4.9352   10.8157 O.co2     1 PAL        -0.5096 
     15 C10        11.5182    4.7059   10.1559 C.2       1 PAL        -0.1929 
     16 C11         9.7522    4.2011    4.9957 C.3       1 PAL         0.0909 
     17 C12        11.2378    4.4522    4.7672 C.3       1 PAL        -0.0924 
     18 C13        11.2645    5.3745    3.5512 C.3       1 PAL        -0.0771 
     19 C14         9.9162    6.1003    3.5411 C.3       1 PAL        -0.0771 
     20 C15         9.1476    5.5786    4.7523 C.3       1 PAL        -0.0924 
     21 N4          7.3314    0.0371    4.1922 N.pl3     1 PAL        -0.8124 
     22 C16         7.5032    0.3649    2.8341 C.ar      1 PAL         0.6024 
     23 C17         6.9859   -0.5170    1.8990 C.ar      1 PAL        -0.2062 
     24 C18         7.1462   -0.2065    0.5532 C.ar      1 PAL        -0.1109 
     25 C19         7.8095    0.9600    0.1889 C.ar      1 PAL         0.0140 
     26 C20         8.2898    1.7759    1.2005 C.ar      1 PAL         0.3764 
     27 N5          8.1532    1.5075    2.5184 N.ar      1 PAL        -0.6854 
     28 N6          7.9854    1.2998   -1.1572 N.pl3     1 PAL        -0.6436 
     29 C21         6.7864    1.4755   -1.9881 C.3       1 PAL         0.1900 
     30 C22         7.1351    1.3280   -3.4687 C.3       1 PAL         0.1592 
     31 N7          8.2322    2.2165   -3.8495 N.4       1 PAL        -0.8173 
     32 C23         9.4237    1.9112   -3.0594 C.3       1 PAL         0.1592 
     33 C24         9.1602    2.0789   -1.5631 C.3       1 PAL         0.1900 
     34 H1          7.8673    1.0911    9.9885 H         1 PAL         0.0605 
     35 H2          7.7808    2.7133   10.7549 H         1 PAL         0.0605 
     36 H3          9.3119    1.7754   10.8080 H         1 PAL         0.0605 
     37 H4          7.4875    0.2175    8.5610 H         1 PAL         0.0336 
     38 H5         11.9115    5.2358   11.0359 H         1 PAL         0.0670 
     39 H6         12.2096    4.3148    9.3950 H         1 PAL         0.0670 
     40 H8          9.3234    3.3973    4.3792 H         1 PAL         0.0934 
     41 H9         11.6711    4.9263    5.6602 H         1 PAL         0.0595 
     42 H10        11.7463    3.4956    4.5767 H         1 PAL         0.0595 
     43 H11        12.0977    6.0860    3.6489 H         1 PAL         0.0439 
     44 H12        11.3995    4.7748    2.6390 H         1 PAL         0.0439 
     45 H13        10.0832    7.1851    3.6138 H         1 PAL         0.0439 
     46 H14         9.3845    5.8731    2.6053 H         1 PAL         0.0439 
     47 H15         8.0710    5.4761    4.5510 H         1 PAL         0.0595 
     48 H16         9.2959    6.2068    5.6430 H         1 PAL         0.0595 
     49 H17         6.7859   -0.9172    4.2338 H         1 PAL         0.4652 
     50 H18         6.5091   -1.3546    2.1655 H         1 PAL         0.1646 
     51 H19         6.7854   -0.8212   -0.1482 H         1 PAL         0.1465 
     52 H20         8.7714    2.6225    0.9739 H         1 PAL         0.0262 
     53 H21         6.0393    0.7142   -1.7194 H         1 PAL         0.0446 
     54 H22         6.3661    2.4777   -1.8181 H         1 PAL         0.0446 
     55 H23         7.4394    0.2907   -3.6721 H         1 PAL         0.0378 
     56 H24         6.2551    1.5784   -4.0794 H         1 PAL         0.0378 
     57 H25         8.4618    2.0791   -4.9165 H         1 PAL         0.3658 
     58 H26         9.7301    0.8712   -3.2450 H         1 PAL         0.0378 
     59 H27        10.2391    2.5907   -3.3481 H         1 PAL         0.0378 
     60 H28         8.9861    3.1436   -1.3483 H         1 PAL         0.0446 
     61 H29        10.0416    1.7314   -1.0042 H         1 PAL         0.0446 
     62 H62         7.9376    3.2609   -3.6694 H         1 PAL         0.0000 
@<TRIPOS>BOND
     1    1    2 1    
     2    1   34 1    
     3    1   35 1    
     4    1   36 1    
     5    2   12 ar   
     6    2    3 ar   
     7    3    8 ar   
     8    3    4 ar   
     9    4    5 ar   
    10    4   37 1    
    11    5    6 ar   
    12    6    7 ar   
    13    6   21 1    
    14    7    8 ar   
    15    8    9 ar   
    16    9   10 ar   
    17    9   16 1    
    18   10   11 2    
    19   10   12 ar   
    20   12   13 1    
    21   13   15 2    
    22   13   14 1    
    23   15   38 1    
    24   15   39 1    
    25   16   20 1    
    26   16   17 1    
    27   16   40 1    
    28   17   18 1    
    29   17   41 1    
    30   17   42 1    
    31   18   19 1    
    32   18   43 1    
    33   18   44 1    
    34   19   20 1    
    35   19   45 1    
    36   19   46 1    
    37   20   47 1    
    38   20   48 1    
    39   21   22 1    
    40   21   49 1    
    41   22   27 ar   
    42   22   23 ar   
    43   23   24 ar   
    44   23   50 1    
    45   24   25 ar   
    46   24   51 1    
    47   25   26 ar   
    48   25   28 1    
    49   26   27 ar   
    50   26   52 1    
    51   28   33 1    
    52   28   29 1    
    53   29   30 1    
    54   29   53 1    
    55   29   54 1    
    56   30   31 1    
    57   30   55 1    
    58   30   56 1    
    59   31   32 1    
    60   31   57 1    
    61   31   62 1    
    62   32   33 1    
    63   32   58 1    
    64   32   59 1    
    65   33   60 1    
    66   33   61 1    
@<TRIPOS>SUBSTRUCTURE
     1 PAL         1 GROUP             0       ****    0 ROOT    
@<TRIPOS>MOLECULE
6-acetyl-8-cyclopentyl-5-methyl-2-[(5-piperazin-1-yl-2-pyridyl)amino]pyrido[2,3-d]pyrimidin-7-one
62   66    1
SMALL
USER_CHARGES


@<TRIPOS>ATOM
      1 C1          4.9750   -4.3687    8.2246 C.3       1 PAL        -0.0814 
      2 C2          4.8939   -4.3277    6.7159 C.ar      1 PAL         0.0910 
      3 C3          5.5384   -3.1663    6.0616 C.ar      1 PAL        -0.4206 
      4 C4          6.1398   -2.1177    6.7544 C.ar      1 PAL         0.5133 
      5 N1          6.7373   -1.0526    6.1789 N.ar      1 PAL        -0.7559 
      6 C5          6.7185   -1.0565    4.8410 C.ar      1 PAL         0.9320 
      7 N2          6.1704   -1.9953    4.0528 N.ar      1 PAL        -0.8135 
      8 C6          5.5784   -3.0463    4.6779 C.ar      1 PAL         0.6341 
      9 N3          4.9705   -4.0587    3.8852 N.pl3     1 PAL        -0.4117 
     10 C7          4.3257   -5.1561    4.4402 C.ar      1 PAL         0.7214 
     11 O1          3.7799   -6.0372    3.7729 O.2       1 PAL        -0.6119 
     12 C8          4.3010   -5.2588    5.9395 C.ar      1 PAL        -0.2848 
     13 C9          3.6031   -6.4143    6.5411 C.2       1 PAL         0.6020 
     14 O2          4.2165   -7.1990    7.2571 O.2       1 PAL        -0.5096 
     15 C10         2.1387   -6.5731    6.2481 C.3       1 PAL        -0.1929 
     16 C11         5.0348   -3.9014    2.4433 C.3       1 PAL         0.0909 
     17 C12         3.6612   -3.9388    1.7844 C.3       1 PAL        -0.0924 
     18 C13         3.9735   -4.2125    0.3155 C.3       1 PAL        -0.0771 
     19 C14         5.3257   -4.9307    0.2972 C.3       1 PAL        -0.0771 
     20 C15         5.7574   -5.0537    1.7562 C.3       1 PAL        -0.0924 
     21 N4          7.3343    0.0355    4.1922 N.2       1 PAL        -0.8124 
     22 C16         7.5051    0.3638    2.8341 C.ar      1 PAL         0.6024 
     23 C17         6.9879   -0.5181    1.8990 C.ar      1 PAL        -0.2062 
     24 C18         7.1448   -0.2057    0.5532 C.ar      1 PAL        -0.1109 
     25 C19         7.8094    0.9601    0.1889 C.ar      1 PAL         0.0140 
     26 C20         8.2920    1.7746    1.2005 C.ar      1 PAL         0.3764 
     27 N5          8.1555    1.5062    2.5184 N.pl3     1 PAL        -0.6854 
     28 N6          7.9853    1.2998   -1.1572 N.pl3     1 PAL        -0.6436 
     29 C21         6.7863    1.4784   -1.9874 C.3       1 PAL         0.1900 
     30 C22         7.1339    1.3305   -3.4682 C.3       1 PAL         0.1592 
     31 N7          8.2327    2.2167   -3.8494 N.3       1 PAL        -0.8173 
     32 C23         9.4240    1.9086   -3.0600 C.3       1 PAL         0.1592 
     33 C24         9.1616    2.0765   -1.5635 C.3       1 PAL         0.1900 
     34 H1          5.5140   -3.4810    8.5871 H         1 PAL         0.0605 
     35 H2          5.5108   -5.2767    8.5384 H         1 PAL         0.0605 
     36 H3          3.9590   -4.3784    8.6462 H         1 PAL         0.0605 
     37 H4          6.1676   -2.0817    7.8391 H         1 PAL         0.0336 
     38 H5          1.7577   -7.4696    6.7589 H         1 PAL         0.0670 
     39 H6          1.9913   -6.6787    5.1631 H         1 PAL         0.0670 
     40 H7          1.5947   -5.6871    6.6075 H         1 PAL         0.0670 
     41 H8          5.5495   -2.9317    2.3743 H         1 PAL         0.0934 
     42 H9          3.0582   -4.7387    2.2389 H         1 PAL         0.0595 
     43 H10         3.1577   -2.9719    1.9310 H         1 PAL         0.0595 
     44 H11         3.1827   -4.8437   -0.1160 H         1 PAL         0.0439 
     45 H12         4.0223   -3.2600   -0.2326 H         1 PAL         0.0439 
     46 H13         5.2086   -5.9210   -0.1671 H         1 PAL         0.0439 
     47 H14         6.0483   -4.3372   -0.2821 H         1 PAL         0.0439 
     48 H15         6.8435   -4.9324    1.8818 H         1 PAL         0.0595 
     49 H16         5.4403   -6.0060    2.2064 H         1 PAL         0.0595 
     50 H17         8.5639    2.2016    3.2665 H         1 PAL         0.4652 
     51 H18         6.5122   -1.3564    2.1655 H         1 PAL         0.1646 
     52 H19         6.7820   -0.8192   -0.1481 H         1 PAL         0.1465 
     53 H20         8.7755    2.6201    0.9738 H         1 PAL         0.0262 
     54 H21         6.0377    0.7186   -1.7185 H         1 PAL         0.0446 
     55 H22         6.3683    2.4815   -1.8169 H         1 PAL         0.0446 
     56 H23         7.4358    0.2926   -3.6721 H         1 PAL         0.0378 
     57 H24         6.2541    1.5831   -4.0784 H         1 PAL         0.0378 
     58 H25         8.4614    2.0792   -4.9165 H         1 PAL         0.3658 
     59 H26         9.7280    0.8680   -3.2460 H         1 PAL         0.0378 
     60 H27        10.2407    2.5864   -3.3489 H         1 PAL         0.0378 
     61 H28         8.9900    3.1415   -1.3483 H         1 PAL         0.0446 
     62 H29        10.0426    1.7269   -1.0051 H         1 PAL         0.0446 
@<TRIPOS>BOND
     1    1    2 1    
     2    1   34 1    
     3    1   35 1    
     4    1   36 1    
     5    2   12 ar   
     6    2    3 ar   
     7    3    8 ar   
     8    3    4 ar   
     9    4    5 ar   
    10    4   37 1    
    11    5    6 ar   
    12    6    7 ar   
    13    6   21 1    
    14    7    8 ar   
    15    8    9 ar   
    16    9   10 ar   
    17    9   16 1    
    18   10   11 2    
    19   10   12 ar   
    20   12   13 1    
    21   13   14 2    
    22   13   15 1    
    23   15   38 1    
    24   15   39 1    
    25   15   40 1    
    26   16   20 1    
    27   16   17 1    
    28   16   41 1    
    29   17   18 1    
    30   17   42 1    
    31   17   43 1    
    32   18   19 1    
    33   18   44 1    
    34   18   45 1    
    35   19   20 1    
    36   19   46 1    
    37   19   47 1    
    38   20   48 1    
    39   20   49 1    
    40   21   22 2    
    41   22   23 ar   
    42   22   27 ar   
    43   23   24 ar   
    44   23   51 1    
    45   24   25 ar   
    46   24   52 1    
    47   25   26 ar   
    48   25   28 1    
    49   26   27 ar   
    50   26   53 1    
    51   27   50 1    
    52   28   33 1    
    53   28   29 1    
    54   29   30 1    
    55   29   54 1    
    56   29   55 1    
    57   30   31 1    
    58   30   56 1    
    59   30   57 1    
    60   31   32 1    
    61   31   58 1    
    62   32   33 1    
    63   32   59 1    
    64   32   60 1    
    65   33   61 1    
    66   33   62 1    
@<TRIPOS>SUBSTRUCTURE
     1 PAL         1 GROUP             0       ****    0 ROOT    
@<TRIPOS>MOLECULE
6-acetyl-8-cyclopentyl-5-methyl-2-[(5-piperazin-1-yl-2-pyridyl)amino]pyrido[2,3-d]pyrimidin-7-one
62   66    1
SMALL
USER_CHARGES


@<TRIPOS>ATOM
      1 C1          8.4304    2.0117   10.2019 C.3       1 PAL        -0.0814 
      2 C2          8.8647    2.6496    8.9024 C.ar      1 PAL         0.0910 
      3 C3          8.4582    1.9456    7.6649 C.ar      1 PAL        -0.4206 
      4 C4          7.7716    0.7333    7.6489 C.ar      1 PAL         0.5133 
      5 N1          7.3868    0.0770    6.5337 N.ar      1 PAL        -0.7559 
      6 C5          7.7181    0.6816    5.3870 C.ar      1 PAL         0.9320 
      7 N2          8.3815    1.8420    5.2587 N.ar      1 PAL        -0.8135 
      8 C6          8.7502    2.4638    6.4091 C.ar      1 PAL         0.6341 
      9 N3          9.4684    3.6884    6.3241 N.pl3     1 PAL        -0.4117 
     10 C7          9.9022    4.3801    7.4473 C.ar      1 PAL         0.7214 
     11 O1         10.5383    5.4347    7.3966 O.2       1 PAL        -0.6119 
     12 C8          9.5692    3.7953    8.7913 C.ar      1 PAL        -0.2848 
     13 C9         10.0403    4.5147    9.9932 C.2       1 PAL         0.6020 
     14 O2          9.2329    4.9264   10.8198 O.2       1 PAL        -0.5096 
     15 C10        11.5212    4.7052   10.1551 C.3       1 PAL        -0.1929 
     16 C11         9.7526    4.2009    4.9957 C.3       1 PAL         0.0909 
     17 C12        11.2379    4.4531    4.7664 C.3       1 PAL        -0.0924 
     18 C13        11.2633    5.3758    3.5507 C.3       1 PAL        -0.0771 
     19 C14         9.9145    6.1007    3.5416 C.3       1 PAL        -0.0771 
     20 C15         9.1470    5.5780    4.7531 C.3       1 PAL        -0.0924 
     21 N4          7.3343    0.0355    4.1922 N.2       1 PAL        -0.8124 
     22 C16         7.5051    0.3638    2.8341 C.ar      1 PAL         0.6024 
     23 C17         6.9879   -0.5181    1.8990 C.ar      1 PAL        -0.2062 
     24 C18         7.1448   -0.2057    0.5532 C.ar      1 PAL        -0.1109 
     25 C19         7.8094    0.9601    0.1889 C.ar      1 PAL         0.0140 
     26 C20         8.2920    1.7746    1.2005 C.ar      1 PAL         0.3764 
     27 N5          8.1555    1.5062    2.5184 N.pl3     1 PAL        -0.6854 
     28 N6          7.9853    1.2998   -1.1572 N.pl3     1 PAL        -0.6436 
     29 C21         6.7863    1.4784   -1.9874 C.3       1 PAL         0.1900 
     30 C22         7.1339    1.3305   -3.4682 C.3       1 PAL         0.1592 
     31 N7          8.2327    2.2167   -3.8494 N.3       1 PAL        -0.8173 
     32 C23         9.4240    1.9086   -3.0600 C.3       1 PAL         0.1592 
     33 C24         9.1616    2.0765   -1.5635 C.3       1 PAL         0.1900 
     34 H1          7.8726    1.0879    9.9885 H         1 PAL         0.0605 
     35 H2          7.7854    2.7099   10.7555 H         1 PAL         0.0605 
     36 H3          9.3172    1.7730   10.8075 H         1 PAL         0.0605 
     37 H4          7.4927    0.2145    8.5609 H         1 PAL         0.0336 
     38 H5         11.7206    5.2527   11.0881 H         1 PAL         0.0670 
     39 H6         11.9123    5.2793    9.3022 H         1 PAL         0.0670 
     40 H7         12.0151    3.7231   10.1934 H         1 PAL         0.0670 
     41 H8          9.3241    3.3970    4.3792 H         1 PAL         0.0934 
     42 H9         11.6714    4.9272    5.6594 H         1 PAL         0.0595 
     43 H10        11.7470    3.4969    4.5753 H         1 PAL         0.0595 
     44 H11        12.0961    6.0878    3.6482 H         1 PAL         0.0439 
     45 H12        11.3982    4.7764    2.6383 H         1 PAL         0.0439 
     46 H13        10.0808    7.1856    3.6146 H         1 PAL         0.0439 
     47 H14         9.3824    5.8734    2.6061 H         1 PAL         0.0439 
     48 H15         8.0703    5.4749    4.5524 H         1 PAL         0.0595 
     49 H16         9.2953    6.2060    5.6439 H         1 PAL         0.0595 
     50 H17         8.5639    2.2016    3.2665 H         1 PAL         0.4652 
     51 H18         6.5122   -1.3564    2.1655 H         1 PAL         0.1646 
     52 H19         6.7820   -0.8192   -0.1481 H         1 PAL         0.1465 
     53 H20         8.7755    2.6201    0.9738 H         1 PAL         0.0262 
     54 H21         6.0377    0.7186   -1.7185 H         1 PAL         0.0446 
     55 H22         6.3683    2.4815   -1.8169 H         1 PAL         0.0446 
     56 H23         7.4358    0.2926   -3.6721 H         1 PAL         0.0378 
     57 H24         6.2541    1.5831   -4.0784 H         1 PAL         0.0378 
     58 H25         8.4614    2.0792   -4.9165 H         1 PAL         0.3658 
     59 H26         9.7280    0.8680   -3.2460 H         1 PAL         0.0378 
     60 H27        10.2407    2.5864   -3.3489 H         1 PAL         0.0378 
     61 H28         8.9900    3.1415   -1.3483 H         1 PAL         0.0446 
     62 H29        10.0426    1.7269   -1.0051 H         1 PAL         0.0446 
@<TRIPOS>BOND
     1    1    2 1    
     2    1   34 1    
     3    1   35 1    
     4    1   36 1    
     5    2   12 ar   
     6    2    3 ar   
     7    3    8 ar   
     8    3    4 ar   
     9    4    5 ar   
    10    4   37 1    
    11    5    6 ar   
    12    6    7 ar   
    13    6   21 1    
    14    7    8 ar   
    15    8    9 ar   
    16    9   10 ar   
    17    9   16 1    
    18   10   11 2    
    19   10   12 ar   
    20   12   13 1    
    21   13   14 2    
    22   13   15 1    
    23   15   38 1    
    24   15   39 1    
    25   15   40 1    
    26   16   20 1    
    27   16   17 1    
    28   16   41 1    
    29   17   18 1    
    30   17   42 1    
    31   17   43 1    
    32   18   19 1    
    33   18   44 1    
    34   18   45 1    
    35   19   20 1    
    36   19   46 1    
    37   19   47 1    
    38   20   48 1    
    39   20   49 1    
    40   21   22 2    
    41   22   23 ar   
    42   22   27 ar   
    43   23   24 ar   
    44   23   51 1    
    45   24   25 ar   
    46   24   52 1    
    47   25   26 ar   
    48   25   28 1    
    49   26   27 ar   
    50   26   53 1    
    51   27   50 1    
    52   28   33 1    
    53   28   29 1    
    54   29   30 1    
    55   29   54 1    
    56   29   55 1    
    57   30   31 1    
    58   30   56 1    
    59   30   57 1    
    60   31   32 1    
    61   31   58 1    
    62   32   33 1    
    63   32   59 1    
    64   32   60 1    
    65   33   61 1    
    66   33   62 1    
@<TRIPOS>SUBSTRUCTURE
     1 PAL         1 GROUP             0       ****    0 ROOT    
@<TRIPOS>MOLECULE
6-acetyl-8-cyclopentyl-5-methyl-2-[(5-piperazin-1-yl-2-pyridyl)amino]pyrido[2,3-d]pyrimidin-7-one
64   68    1
SMALL
USER_CHARGES


@<TRIPOS>ATOM
      1 C1          8.4256    2.0145   10.2019 C.3       1 PAL        -0.0814 
      2 C2          8.8610    2.6517    8.9024 C.ar      1 PAL         0.0910 
      3 C3          8.4547    1.9476    7.6649 C.ar      1 PAL        -0.4206 
      4 C4          7.7673    0.7358    7.6490 C.ar      1 PAL         0.5133 
      5 N1          7.3827    0.0794    6.5338 N.ar      1 PAL        -0.7559 
      6 C5          7.7150    0.6834    5.3870 C.ar      1 PAL         0.9320 
      7 N2          8.3793    1.8433    5.2587 N.ar      1 PAL        -0.8135 
      8 C6          8.7478    2.4652    6.4091 C.ar      1 PAL         0.6341 
      9 N3          9.4669    3.6893    6.3241 N.pl3     1 PAL        -0.4117 
     10 C7          9.9005    4.3810    7.4473 C.ar      1 PAL         0.7214 
     11 O1         10.5374    5.4352    7.3967 O.2       1 PAL        -0.6119 
     12 C8          9.5664    3.7969    8.7913 C.ar      1 PAL        -0.2848 
     13 C9         10.0373    4.5164    9.9933 C.2       1 PAL         0.6020 
     14 O2          9.2297    4.9289   10.8193 O.2       1 PAL        -0.5096 
     15 C10        11.5182    4.7059   10.1559 C.3       1 PAL        -0.1929 
     16 C11         9.7522    4.2011    4.9957 C.3       1 PAL         0.0909 
     17 C12        11.2378    4.4522    4.7672 C.3       1 PAL        -0.0924 
     18 C13        11.2645    5.3745    3.5512 C.3       1 PAL        -0.0771 
     19 C14         9.9162    6.1003    3.5411 C.3       1 PAL        -0.0771 
     20 C15         9.1476    5.5786    4.7523 C.3       1 PAL        -0.0924 
     21 N4          7.3314    0.0371    4.1922 N.pl3     1 PAL        -0.8124 
     22 C16         7.5032    0.3649    2.8341 C.ar      1 PAL         0.6024 
     23 C17         6.9859   -0.5170    1.8990 C.ar      1 PAL        -0.2062 
     24 C18         7.1462   -0.2065    0.5532 C.ar      1 PAL        -0.1109 
     25 C19         7.8095    0.9600    0.1889 C.ar      1 PAL         0.0140 
     26 C20         8.2898    1.7759    1.2005 C.ar      1 PAL         0.3764 
     27 N5          8.1532    1.5075    2.5184 N.ar      1 PAL        -0.6854 
     28 N6          7.9854    1.2998   -1.1572 N.4       1 PAL        -0.6436 
     29 C21         6.7864    1.4755   -1.9881 C.3       1 PAL         0.1900 
     30 C22         7.1351    1.3280   -3.4687 C.3       1 PAL         0.1592 
     31 N7          8.2322    2.2165   -3.8495 N.4       1 PAL        -0.8173 
     32 C23         9.4237    1.9112   -3.0594 C.3       1 PAL         0.1592 
     33 C24         9.1602    2.0789   -1.5631 C.3       1 PAL         0.1900 
     34 H1          7.8673    1.0911    9.9885 H         1 PAL         0.0605 
     35 H2          7.7808    2.7133   10.7549 H         1 PAL         0.0605 
     36 H3          9.3119    1.7754   10.8080 H         1 PAL         0.0605 
     37 H4          7.4875    0.2175    8.5610 H         1 PAL         0.0336 
     38 H5         11.7175    5.2535   11.0888 H         1 PAL         0.0670 
     39 H6         11.9103    5.2795    9.3031 H         1 PAL         0.0670 
     40 H7         12.0115    3.7235   10.1949 H         1 PAL         0.0670 
     41 H8          9.3234    3.3973    4.3792 H         1 PAL         0.0934 
     42 H9         11.6711    4.9263    5.6602 H         1 PAL         0.0595 
     43 H10        11.7463    3.4956    4.5767 H         1 PAL         0.0595 
     44 H11        12.0977    6.0860    3.6489 H         1 PAL         0.0439 
     45 H12        11.3995    4.7748    2.6390 H         1 PAL         0.0439 
     46 H13        10.0832    7.1851    3.6138 H         1 PAL         0.0439 
     47 H14         9.3845    5.8731    2.6053 H         1 PAL         0.0439 
     48 H15         8.0710    5.4761    4.5510 H         1 PAL         0.0595 
     49 H16         9.2959    6.2068    5.6430 H         1 PAL         0.0595 
     50 H17         6.7859   -0.9172    4.2338 H         1 PAL         0.4652 
     51 H18         6.4691   -1.4249    2.1922 H         1 PAL         0.1646 
     52 H19         6.7514   -0.8795   -0.2031 H         1 PAL         0.1465 
     53 H20         8.8157    2.6997    0.9786 H         1 PAL         0.0262 
     54 H21         6.0393    0.7142   -1.7194 H         1 PAL         0.0446 
     55 H22         6.3661    2.4777   -1.8181 H         1 PAL         0.0446 
     56 H23         7.4394    0.2907   -3.6721 H         1 PAL         0.0378 
     57 H24         6.2551    1.5784   -4.0794 H         1 PAL         0.0378 
     58 H25         8.4618    2.0791   -4.9165 H         1 PAL         0.3658 
     59 H26         9.7301    0.8712   -3.2450 H         1 PAL         0.0378 
     60 H27        10.2391    2.5907   -3.3481 H         1 PAL         0.0378 
     61 H28         8.9861    3.1436   -1.3483 H         1 PAL         0.0446 
     62 H29        10.0416    1.7314   -1.0042 H         1 PAL         0.0446 
     63 H63         7.9376    3.2609   -3.6694 H         1 PAL         0.0000 
     64 H64         8.3210    0.2684   -1.3405 H         1 PAL         0.0000 
@<TRIPOS>BOND
     1    1    2 1    
     2    1   34 1    
     3    1   35 1    
     4    1   36 1    
     5    2   12 ar   
     6    2    3 ar   
     7    3    8 ar   
     8    3    4 ar   
     9    4    5 ar   
    10    4   37 1    
    11    5    6 ar   
    12    6    7 ar   
    13    6   21 1    
    14    7    8 ar   
    15    8    9 ar   
    16    9   10 ar   
    17    9   16 1    
    18   10   11 2    
    19   10   12 ar   
    20   12   13 1    
    21   13   14 2    
    22   13   15 1    
    23   15   38 1    
    24   15   39 1    
    25   15   40 1    
    26   16   20 1    
    27   16   17 1    
    28   16   41 1    
    29   17   18 1    
    30   17   42 1    
    31   17   43 1    
    32   18   19 1    
    33   18   44 1    
    34   18   45 1    
    35   19   20 1    
    36   19   46 1    
    37   19   47 1    
    38   20   48 1    
    39   20   49 1    
    40   21   22 1    
    41   21   50 1    
    42   22   27 ar   
    43   22   23 ar   
    44   23   24 ar   
    45   23   51 1    
    46   24   25 ar   
    47   24   52 1    
    48   25   26 ar   
    49   25   28 1    
    50   26   27 ar   
    51   26   53 1    
    52   28   33 1    
    53   28   29 1    
    54   28   64 1    
    55   29   30 1    
    56   29   54 1    
    57   29   55 1    
    58   30   31 1    
    59   30   56 1    
    60   30   57 1    
    61   31   32 1    
    62   31   58 1    
    63   31   63 1    
    64   32   33 1    
    65   32   59 1    
    66   32   60 1    
    67   33   61 1    
    68   33   62 1    
@<TRIPOS>SUBSTRUCTURE
     1 PAL         1 GROUP             0       ****    0 ROOT    
@<TRIPOS>MOLECULE
6-acetyl-8-cyclopentyl-5-methyl-2-[(5-piperazin-1-yl-2-pyridyl)amino]pyrido[2,3-d]pyrimidin-7-one
63   67    1
SMALL
USER_CHARGES


@<TRIPOS>ATOM
      1 C1          8.4256    2.0145   10.2019 C.3       1 PAL        -0.0814 
      2 C2          8.8610    2.6517    8.9024 C.ar      1 PAL         0.0910 
      3 C3          8.4547    1.9476    7.6649 C.ar      1 PAL        -0.4206 
      4 C4          7.7673    0.7358    7.6490 C.ar      1 PAL         0.5133 
      5 N1          7.3827    0.0794    6.5338 N.ar      1 PAL        -0.7559 
      6 C5          7.7150    0.6834    5.3870 C.ar      1 PAL         0.9320 
      7 N2          8.3793    1.8433    5.2587 N.ar      1 PAL        -0.8135 
      8 C6          8.7478    2.4652    6.4091 C.ar      1 PAL         0.6341 
      9 N3          9.4669    3.6893    6.3241 N.pl3     1 PAL        -0.4117 
     10 C7          9.9005    4.3810    7.4473 C.ar      1 PAL         0.7214 
     11 O1         10.5374    5.4352    7.3967 O.2       1 PAL        -0.6119 
     12 C8          9.5664    3.7969    8.7913 C.ar      1 PAL        -0.2848 
     13 C9         10.0373    4.5164    9.9933 C.2       1 PAL         0.6020 
     14 O2          9.2293    4.9352   10.8157 O.co2     1 PAL        -0.5096 
     15 C10        11.5182    4.7059   10.1559 C.2       1 PAL        -0.1929 
     16 C11         9.7522    4.2011    4.9957 C.3       1 PAL         0.0909 
     17 C12        11.2378    4.4522    4.7672 C.3       1 PAL        -0.0924 
     18 C13        11.2645    5.3745    3.5512 C.3       1 PAL        -0.0771 
     19 C14         9.9162    6.1003    3.5411 C.3       1 PAL        -0.0771 
     20 C15         9.1476    5.5786    4.7523 C.3       1 PAL        -0.0924 
     21 N4          7.3314    0.0371    4.1922 N.pl3     1 PAL        -0.8124 
     22 C16         7.5032    0.3649    2.8341 C.ar      1 PAL         0.6024 
     23 C17         6.9859   -0.5170    1.8990 C.ar      1 PAL        -0.2062 
     24 C18         7.1462   -0.2065    0.5532 C.ar      1 PAL        -0.1109 
     25 C19         7.8095    0.9600    0.1889 C.ar      1 PAL         0.0140 
     26 C20         8.2898    1.7759    1.2005 C.ar      1 PAL         0.3764 
     27 N5          8.1532    1.5075    2.5184 N.pl3     1 PAL        -0.6854 
     28 N6          7.9854    1.2998   -1.1572 N.pl3     1 PAL        -0.6436 
     29 C21         6.7864    1.4755   -1.9881 C.3       1 PAL         0.1900 
     30 C22         7.1351    1.3280   -3.4687 C.3       1 PAL         0.1592 
     31 N7          8.2322    2.2165   -3.8495 N.4       1 PAL        -0.8173 
     32 C23         9.4237    1.9112   -3.0594 C.3       1 PAL         0.1592 
     33 C24         9.1602    2.0789   -1.5631 C.3       1 PAL         0.1900 
     34 H1          7.8673    1.0911    9.9885 H         1 PAL         0.0605 
     35 H2          7.7808    2.7133   10.7549 H         1 PAL         0.0605 
     36 H3          9.3119    1.7754   10.8080 H         1 PAL         0.0605 
     37 H4          7.4875    0.2175    8.5610 H         1 PAL         0.0336 
     38 H5         11.9115    5.2358   11.0359 H         1 PAL         0.0670 
     39 H6         12.2096    4.3148    9.3950 H         1 PAL         0.0670 
     40 H8          9.3234    3.3973    4.3792 H         1 PAL         0.0934 
     41 H9         11.6711    4.9263    5.6602 H         1 PAL         0.0595 
     42 H10        11.7463    3.4956    4.5767 H         1 PAL         0.0595 
     43 H11        12.0977    6.0860    3.6489 H         1 PAL         0.0439 
     44 H12        11.3995    4.7748    2.6390 H         1 PAL         0.0439 
     45 H13        10.0832    7.1851    3.6138 H         1 PAL         0.0439 
     46 H14         9.3845    5.8731    2.6053 H         1 PAL         0.0439 
     47 H15         8.0710    5.4761    4.5510 H         1 PAL         0.0595 
     48 H16         9.2959    6.2068    5.6430 H         1 PAL         0.0595 
     49 H17         6.7859   -0.9172    4.2338 H         1 PAL         0.4652 
     50 H18         6.5091   -1.3546    2.1655 H         1 PAL         0.1646 
     51 H19         6.7854   -0.8212   -0.1482 H         1 PAL         0.1465 
     52 H20         8.7714    2.6225    0.9739 H         1 PAL         0.0262 
     53 H21         6.0393    0.7142   -1.7194 H         1 PAL         0.0446 
     54 H22         6.3661    2.4777   -1.8181 H         1 PAL         0.0446 
     55 H23         7.4394    0.2907   -3.6721 H         1 PAL         0.0378 
     56 H24         6.2551    1.5784   -4.0794 H         1 PAL         0.0378 
     57 H25         8.4618    2.0791   -4.9165 H         1 PAL         0.3658 
     58 H26         9.7301    0.8712   -3.2450 H         1 PAL         0.0378 
     59 H27        10.2391    2.5907   -3.3481 H         1 PAL         0.0378 
     60 H28         8.9861    3.1436   -1.3483 H         1 PAL         0.0446 
     61 H29        10.0416    1.7314   -1.0042 H         1 PAL         0.0446 
     62 H62         7.9376    3.2609   -3.6694 H         1 PAL         0.0000 
     63 H63         8.5372    2.1602    3.3162 H         1 PAL         0.0000 
@<TRIPOS>BOND
     1    1    2 1    
     2    1   34 1    
     3    1   35 1    
     4    1   36 1    
     5    2   12 ar   
     6    2    3 ar   
     7    3    8 ar   
     8    3    4 ar   
     9    4    5 ar   
    10    4   37 1    
    11    5    6 ar   
    12    6    7 ar   
    13    6   21 1    
    14    7    8 ar   
    15    8    9 ar   
    16    9   10 ar   
    17    9   16 1    
    18   10   11 2    
    19   10   12 ar   
    20   12   13 1    
    21   13   15 2    
    22   13   14 1    
    23   15   38 1    
    24   15   39 1    
    25   16   20 1    
    26   16   17 1    
    27   16   40 1    
    28   17   18 1    
    29   17   41 1    
    30   17   42 1    
    31   18   19 1    
    32   18   43 1    
    33   18   44 1    
    34   19   20 1    
    35   19   45 1    
    36   19   46 1    
    37   20   47 1    
    38   20   48 1    
    39   21   22 1    
    40   21   49 1    
    41   22   27 ar   
    42   22   23 ar   
    43   23   24 ar   
    44   23   50 1    
    45   24   25 ar   
    46   24   51 1    
    47   25   26 ar   
    48   25   28 1    
    49   26   27 ar   
    50   26   52 1    
    51   27   63 1    
    52   28   33 1    
    53   28   29 1    
    54   29   30 1    
    55   29   53 1    
    56   29   54 1    
    57   30   31 1    
    58   30   55 1    
    59   30   56 1    
    60   31   32 1    
    61   31   57 1    
    62   31   62 1    
    63   32   33 1    
    64   32   58 1    
    65   32   59 1    
    66   33   60 1    
    67   33   61 1    
@<TRIPOS>SUBSTRUCTURE
     1 PAL         1 GROUP             0       ****    0 ROOT    
@<TRIPOS>MOLECULE
6-acetyl-8-cyclopentyl-5-methyl-2-[(5-piperazin-1-yl-2-pyridyl)amino]pyrido[2,3-d]pyrimidin-7-one
64   68    1
SMALL
USER_CHARGES


@<TRIPOS>ATOM
      1 C1          8.4256    2.0145   10.2019 C.3       1 PAL        -0.0814 
      2 C2          8.8610    2.6517    8.9024 C.ar      1 PAL         0.0910 
      3 C3          8.4547    1.9476    7.6649 C.ar      1 PAL        -0.4206 
      4 C4          7.7673    0.7358    7.6490 C.ar      1 PAL         0.5133 
      5 N1          7.3827    0.0794    6.5338 N.ar      1 PAL        -0.7559 
      6 C5          7.7150    0.6834    5.3870 C.ar      1 PAL         0.9320 
      7 N2          8.3793    1.8433    5.2587 N.ar      1 PAL        -0.8135 
      8 C6          8.7478    2.4652    6.4091 C.ar      1 PAL         0.6341 
      9 N3          9.4669    3.6893    6.3241 N.pl3     1 PAL        -0.4117 
     10 C7          9.9005    4.3810    7.4473 C.ar      1 PAL         0.7214 
     11 O1         10.5374    5.4352    7.3967 O.2       1 PAL        -0.6119 
     12 C8          9.5664    3.7969    8.7913 C.ar      1 PAL        -0.2848 
     13 C9         10.0373    4.5164    9.9933 C.2       1 PAL         0.6020 
     14 O2          9.2297    4.9289   10.8193 O.2       1 PAL        -0.5096 
     15 C10        11.5182    4.7059   10.1559 C.3       1 PAL        -0.1929 
     16 C11         9.7522    4.2011    4.9957 C.3       1 PAL         0.0909 
     17 C12        11.2378    4.4522    4.7672 C.3       1 PAL        -0.0924 
     18 C13        11.2645    5.3745    3.5512 C.3       1 PAL        -0.0771 
     19 C14         9.9162    6.1003    3.5411 C.3       1 PAL        -0.0771 
     20 C15         9.1476    5.5786    4.7523 C.3       1 PAL        -0.0924 
     21 N4          7.3314    0.0371    4.1922 N.4       1 PAL        -0.8124 
     22 C16         7.5032    0.3649    2.8341 C.ar      1 PAL         0.6024 
     23 C17         6.9874   -0.5178    1.8990 C.ar      1 PAL        -0.2062 
     24 C18         7.1492   -0.2082    0.5532 C.ar      1 PAL        -0.1109 
     25 C19         7.8126    0.9582    0.1889 C.ar      1 PAL         0.0140 
     26 C20         8.2898    1.7759    1.2005 C.ar      1 PAL         0.3764 
     27 N5          8.1532    1.5075    2.5184 N.ar      1 PAL        -0.6854 
     28 N6          7.9910    1.2966   -1.1573 N.pl3     1 PAL        -0.6436 
     29 C21         6.7936    1.4718   -1.9905 C.3       1 PAL         0.1900 
     30 C22         7.1449    1.3227   -3.4703 C.3       1 PAL         0.1592 
     31 N7          8.2430    2.2104   -3.8501 N.4       1 PAL        -0.8173 
     32 C23         9.4330    1.9055   -3.0575 C.3       1 PAL         0.1592 
     33 C24         9.1668    2.0748   -1.5619 C.3       1 PAL         0.1900 
     34 H1          7.8673    1.0911    9.9885 H         1 PAL         0.0605 
     35 H2          7.7808    2.7133   10.7549 H         1 PAL         0.0605 
     36 H3          9.3119    1.7754   10.8080 H         1 PAL         0.0605 
     37 H4          7.4875    0.2175    8.5610 H         1 PAL         0.0336 
     38 H5         11.7175    5.2535   11.0888 H         1 PAL         0.0670 
     39 H6         11.9103    5.2795    9.3031 H         1 PAL         0.0670 
     40 H7         12.0115    3.7235   10.1949 H         1 PAL         0.0670 
     41 H8          9.3234    3.3973    4.3792 H         1 PAL         0.0934 
     42 H9         11.6711    4.9263    5.6602 H         1 PAL         0.0595 
     43 H10        11.7463    3.4956    4.5767 H         1 PAL         0.0595 
     44 H11        12.0977    6.0860    3.6489 H         1 PAL         0.0439 
     45 H12        11.3995    4.7748    2.6390 H         1 PAL         0.0439 
     46 H13        10.0832    7.1851    3.6138 H         1 PAL         0.0439 
     47 H14         9.3845    5.8731    2.6053 H         1 PAL         0.0439 
     48 H15         8.0710    5.4761    4.5510 H         1 PAL         0.0595 
     49 H16         9.2959    6.2068    5.6430 H         1 PAL         0.0595 
     50 H17         6.2575   -0.0359    4.4187 H         1 PAL         0.4652 
     51 H18         6.5109   -1.3557    2.1655 H         1 PAL         0.1646 
     52 H19         6.7893   -0.8234   -0.1482 H         1 PAL         0.1465 
     53 H20         8.7716    2.6224    0.9739 H         1 PAL         0.0262 
     54 H21         6.0458    0.7110   -1.7223 H         1 PAL         0.0446 
     55 H22         6.3733    2.4743   -1.8223 H         1 PAL         0.0446 
     56 H23         7.4492    0.2850   -3.6721 H         1 PAL         0.0378 
     57 H24         6.2661    1.5728   -4.0829 H         1 PAL         0.0378 
     58 H25         8.4745    2.0718   -4.9165 H         1 PAL         0.3658 
     59 H26         9.7394    0.8652   -3.2414 H         1 PAL         0.0378 
     60 H27        10.2492    2.5845   -3.3454 H         1 PAL         0.0378 
     61 H28         8.9928    3.1398   -1.3485 H         1 PAL         0.0446 
     62 H29        10.0471    1.7277   -1.0010 H         1 PAL         0.0446 
     63 H63         7.8165   -0.9279    4.4007 H         1 PAL         0.0000 
     64 H64         7.9485    3.2551   -3.6715 H         1 PAL         0.0000 
@<TRIPOS>BOND
     1    1    2 1    
     2    1   34 1    
     3    1   35 1    
     4    1   36 1    
     5    2   12 ar   
     6    2    3 ar   
     7    3    8 ar   
     8    3    4 ar   
     9    4    5 ar   
    10    4   37 1    
    11    5    6 ar   
    12    6    7 ar   
    13    6   21 1    
    14    7    8 ar   
    15    8    9 ar   
    16    9   10 ar   
    17    9   16 1    
    18   10   11 2    
    19   10   12 ar   
    20   12   13 1    
    21   13   14 2    
    22   13   15 1    
    23   15   38 1    
    24   15   39 1    
    25   15   40 1    
    26   16   20 1    
    27   16   17 1    
    28   16   41 1    
    29   17   18 1    
    30   17   42 1    
    31   17   43 1    
    32   18   19 1    
    33   18   44 1    
    34   18   45 1    
    35   19   20 1    
    36   19   46 1    
    37   19   47 1    
    38   20   48 1    
    39   20   49 1    
    40   21   22 1    
    41   21   63 1    
    42   21   50 1    
    43   22   27 ar   
    44   22   23 ar   
    45   23   24 ar   
    46   23   51 1    
    47   24   52 1    
    48   24   25 ar   
    49   25   28 1    
    50   25   26 ar   
    51   26   53 1    
    52   26   27 ar   
    53   28   33 1    
    54   28   29 1    
    55   29   30 1    
    56   29   54 1    
    57   29   55 1    
    58   30   31 1    
    59   30   56 1    
    60   30   57 1    
    61   31   32 1    
    62   31   58 1    
    63   31   64 1    
    64   32   33 1    
    65   32   59 1    
    66   32   60 1    
    67   33   61 1    
    68   33   62 1    
@<TRIPOS>SUBSTRUCTURE
     1 PAL         1 GROUP             0       ****    0 ROOT    
@<TRIPOS>MOLECULE
6-acetyl-8-cyclopentyl-5-methyl-2-[(5-piperazin-1-yl-2-pyridyl)amino]pyrido[2,3-d]pyrimidin-7-one
65   69    1
SMALL
USER_CHARGES


@<TRIPOS>ATOM
      1 C1          8.4256    2.0145   10.2019 C.3       1 PAL        -0.0814 
      2 C2          8.8610    2.6517    8.9024 C.ar      1 PAL         0.0910 
      3 C3          8.4547    1.9476    7.6649 C.ar      1 PAL        -0.4206 
      4 C4          7.7673    0.7358    7.6490 C.ar      1 PAL         0.5133 
      5 N1          7.3827    0.0794    6.5338 N.ar      1 PAL        -0.7559 
      6 C5          7.7150    0.6834    5.3870 C.ar      1 PAL         0.9320 
      7 N2          8.3793    1.8433    5.2587 N.ar      1 PAL        -0.8135 
      8 C6          8.7478    2.4652    6.4091 C.ar      1 PAL         0.6341 
      9 N3          9.4669    3.6893    6.3241 N.pl3     1 PAL        -0.4117 
     10 C7          9.9005    4.3810    7.4473 C.ar      1 PAL         0.7214 
     11 O1         10.5374    5.4352    7.3967 O.2       1 PAL        -0.6119 
     12 C8          9.5664    3.7969    8.7913 C.ar      1 PAL        -0.2848 
     13 C9         10.0373    4.5164    9.9933 C.2       1 PAL         0.6020 
     14 O2          9.2297    4.9289   10.8193 O.2       1 PAL        -0.5096 
     15 C10        11.5182    4.7059   10.1559 C.3       1 PAL        -0.1929 
     16 C11         9.7522    4.2011    4.9957 C.3       1 PAL         0.0909 
     17 C12        11.2378    4.4522    4.7672 C.3       1 PAL        -0.0924 
     18 C13        11.2645    5.3745    3.5512 C.3       1 PAL        -0.0771 
     19 C14         9.9162    6.1003    3.5411 C.3       1 PAL        -0.0771 
     20 C15         9.1476    5.5786    4.7523 C.3       1 PAL        -0.0924 
     21 N4          7.3314    0.0371    4.1922 N.pl3     1 PAL        -0.8124 
     22 C16         7.5032    0.3649    2.8341 C.ar      1 PAL         0.6024 
     23 C17         6.9859   -0.5170    1.8990 C.ar      1 PAL        -0.2062 
     24 C18         7.1462   -0.2065    0.5532 C.ar      1 PAL        -0.1109 
     25 C19         7.8095    0.9600    0.1889 C.ar      1 PAL         0.0140 
     26 C20         8.2898    1.7759    1.2005 C.ar      1 PAL         0.3764 
     27 N5          8.1532    1.5075    2.5184 N.pl3     1 PAL        -0.6854 
     28 N6          7.9854    1.2998   -1.1572 N.4       1 PAL        -0.6436 
     29 C21         6.7864    1.4755   -1.9881 C.3       1 PAL         0.1900 
     30 C22         7.1351    1.3280   -3.4687 C.3       1 PAL         0.1592 
     31 N7          8.2322    2.2165   -3.8495 N.4       1 PAL        -0.8173 
     32 C23         9.4237    1.9112   -3.0594 C.3       1 PAL         0.1592 
     33 C24         9.1602    2.0789   -1.5631 C.3       1 PAL         0.1900 
     34 H1          7.8673    1.0911    9.9885 H         1 PAL         0.0605 
     35 H2          7.7808    2.7133   10.7549 H         1 PAL         0.0605 
     36 H3          9.3119    1.7754   10.8080 H         1 PAL         0.0605 
     37 H4          7.4875    0.2175    8.5610 H         1 PAL         0.0336 
     38 H5         11.7175    5.2535   11.0888 H         1 PAL         0.0670 
     39 H6         11.9103    5.2795    9.3031 H         1 PAL         0.0670 
     40 H7         12.0115    3.7235   10.1949 H         1 PAL         0.0670 
     41 H8          9.3234    3.3973    4.3792 H         1 PAL         0.0934 
     42 H9         11.6711    4.9263    5.6602 H         1 PAL         0.0595 
     43 H10        11.7463    3.4956    4.5767 H         1 PAL         0.0595 
     44 H11        12.0977    6.0860    3.6489 H         1 PAL         0.0439 
     45 H12        11.3995    4.7748    2.6390 H         1 PAL         0.0439 
     46 H13        10.0832    7.1851    3.6138 H         1 PAL         0.0439 
     47 H14         9.3845    5.8731    2.6053 H         1 PAL         0.0439 
     48 H15         8.0710    5.4761    4.5510 H         1 PAL         0.0595 
     49 H16         9.2959    6.2068    5.6430 H         1 PAL         0.0595 
     50 H17         6.7859   -0.9172    4.2338 H         1 PAL         0.4652 
     51 H18         6.4691   -1.4249    2.1922 H         1 PAL         0.1646 
     52 H19         6.7514   -0.8795   -0.2031 H         1 PAL         0.1465 
     53 H20         8.8157    2.6997    0.9786 H         1 PAL         0.0262 
     54 H21         6.0393    0.7142   -1.7194 H         1 PAL         0.0446 
     55 H22         6.3661    2.4777   -1.8181 H         1 PAL         0.0446 
     56 H23         7.4394    0.2907   -3.6721 H         1 PAL         0.0378 
     57 H24         6.2551    1.5784   -4.0794 H         1 PAL         0.0378 
     58 H25         8.4618    2.0791   -4.9165 H         1 PAL         0.3658 
     59 H26         9.7301    0.8712   -3.2450 H         1 PAL         0.0378 
     60 H27        10.2391    2.5907   -3.3481 H         1 PAL         0.0378 
     61 H28         8.9861    3.1436   -1.3483 H         1 PAL         0.0446 
     62 H29        10.0416    1.7314   -1.0042 H         1 PAL         0.0446 
     63 H63         7.9376    3.2609   -3.6694 H         1 PAL         0.0000 
     64 H64         8.5372    2.1602    3.3162 H         1 PAL         0.0000 
     65 H65         8.3210    0.2684   -1.3405 H         1 PAL         0.0000 
@<TRIPOS>BOND
     1    1    2 1    
     2    1   34 1    
     3    1   35 1    
     4    1   36 1    
     5    2   12 ar   
     6    2    3 ar   
     7    3    8 ar   
     8    3    4 ar   
     9    4    5 ar   
    10    4   37 1    
    11    5    6 ar   
    12    6    7 ar   
    13    6   21 1    
    14    7    8 ar   
    15    8    9 ar   
    16    9   10 ar   
    17    9   16 1    
    18   10   11 2    
    19   10   12 ar   
    20   12   13 1    
    21   13   14 2    
    22   13   15 1    
    23   15   38 1    
    24   15   39 1    
    25   15   40 1    
    26   16   20 1    
    27   16   17 1    
    28   16   41 1    
    29   17   18 1    
    30   17   42 1    
    31   17   43 1    
    32   18   19 1    
    33   18   44 1    
    34   18   45 1    
    35   19   20 1    
    36   19   46 1    
    37   19   47 1    
    38   20   48 1    
    39   20   49 1    
    40   21   22 1    
    41   21   50 1    
    42   22   27 ar   
    43   22   23 ar   
    44   23   24 ar   
    45   23   51 1    
    46   24   25 ar   
    47   24   52 1    
    48   25   26 ar   
    49   25   28 1    
    50   26   27 ar   
    51   26   53 1    
    52   27   64 1    
    53   28   33 1    
    54   28   29 1    
    55   28   65 1    
    56   29   30 1    
    57   29   54 1    
    58   29   55 1    
    59   30   31 1    
    60   30   56 1    
    61   30   57 1    
    62   31   32 1    
    63   31   58 1    
    64   31   63 1    
    65   32   33 1    
    66   32   59 1    
    67   32   60 1    
    68   33   61 1    
    69   33   62 1    
@<TRIPOS>SUBSTRUCTURE
     1 PAL         1 GROUP             0       ****    0 ROOT    
@<TRIPOS>MOLECULE
6-acetyl-8-cyclopentyl-5-methyl-2-[(5-piperazin-1-yl-2-pyridyl)amino]pyrido[2,3-d]pyrimidin-7-one
62   66    1
SMALL
USER_CHARGES


@<TRIPOS>ATOM
      1 C1          8.4256    2.0145   10.2019 C.3       1 PAL        -0.0814 
      2 C2          8.8610    2.6517    8.9024 C.ar      1 PAL         0.0910 
      3 C3          8.4547    1.9476    7.6649 C.ar      1 PAL        -0.4206 
      4 C4          7.7673    0.7358    7.6490 C.ar      1 PAL         0.5133 
      5 N1          7.3827    0.0794    6.5338 N.ar      1 PAL        -0.7559 
      6 C5          7.7150    0.6834    5.3870 C.ar      1 PAL         0.9320 
      7 N2          8.3793    1.8433    5.2587 N.ar      1 PAL        -0.8135 
      8 C6          8.7478    2.4652    6.4091 C.ar      1 PAL         0.6341 
      9 N3          9.4669    3.6893    6.3241 N.pl3     1 PAL        -0.4117 
     10 C7          9.9005    4.3810    7.4473 C.ar      1 PAL         0.7214 
     11 O1         10.5374    5.4352    7.3967 O.2       1 PAL        -0.6119 
     12 C8          9.5664    3.7969    8.7913 C.ar      1 PAL        -0.2848 
     13 C9         10.0373    4.5164    9.9933 C.2       1 PAL         0.6020 
     14 O2          9.2293    4.9352   10.8157 O.co2     1 PAL        -0.5096 
     15 C10        11.5182    4.7059   10.1559 C.2       1 PAL        -0.1929 
     16 C11         9.7522    4.2011    4.9957 C.3       1 PAL         0.0909 
     17 C12        11.2378    4.4522    4.7672 C.3       1 PAL        -0.0924 
     18 C13        11.2645    5.3745    3.5512 C.3       1 PAL        -0.0771 
     19 C14         9.9162    6.1003    3.5411 C.3       1 PAL        -0.0771 
     20 C15         9.1476    5.5786    4.7523 C.3       1 PAL        -0.0924 
     21 N4          7.3314    0.0371    4.1922 N.pl3     1 PAL        -0.8124 
     22 C16         7.5032    0.3649    2.8341 C.ar      1 PAL         0.6024 
     23 C17         6.9859   -0.5170    1.8990 C.ar      1 PAL        -0.2062 
     24 C18         7.1462   -0.2065    0.5532 C.ar      1 PAL        -0.1109 
     25 C19         7.8095    0.9600    0.1889 C.ar      1 PAL         0.0140 
     26 C20         8.2898    1.7759    1.2005 C.ar      1 PAL         0.3764 
     27 N5          8.1532    1.5075    2.5184 N.pl3     1 PAL        -0.6854 
     28 N6          7.9854    1.2998   -1.1572 N.pl3     1 PAL        -0.6436 
     29 C21         6.7864    1.4755   -1.9881 C.3       1 PAL         0.1900 
     30 C22         7.1351    1.3280   -3.4687 C.3       1 PAL         0.1592 
     31 N7          8.2322    2.2165   -3.8495 N.3       1 PAL        -0.8173 
     32 C23         9.4237    1.9112   -3.0594 C.3       1 PAL         0.1592 
     33 C24         9.1602    2.0789   -1.5631 C.3       1 PAL         0.1900 
     34 H1          7.8673    1.0911    9.9885 H         1 PAL         0.0605 
     35 H2          7.7808    2.7133   10.7549 H         1 PAL         0.0605 
     36 H3          9.3119    1.7754   10.8080 H         1 PAL         0.0605 
     37 H4          7.4875    0.2175    8.5610 H         1 PAL         0.0336 
     38 H5         11.9115    5.2358   11.0359 H         1 PAL         0.0670 
     39 H6         12.2096    4.3148    9.3950 H         1 PAL         0.0670 
     40 H8          9.3234    3.3973    4.3792 H         1 PAL         0.0934 
     41 H9         11.6711    4.9263    5.6602 H         1 PAL         0.0595 
     42 H10        11.7463    3.4956    4.5767 H         1 PAL         0.0595 
     43 H11        12.0977    6.0860    3.6489 H         1 PAL         0.0439 
     44 H12        11.3995    4.7748    2.6390 H         1 PAL         0.0439 
     45 H13        10.0832    7.1851    3.6138 H         1 PAL         0.0439 
     46 H14         9.3845    5.8731    2.6053 H         1 PAL         0.0439 
     47 H15         8.0710    5.4761    4.5510 H         1 PAL         0.0595 
     48 H16         9.2959    6.2068    5.6430 H         1 PAL         0.0595 
     49 H17         6.7859   -0.9172    4.2338 H         1 PAL         0.4652 
     50 H18         6.5091   -1.3546    2.1655 H         1 PAL         0.1646 
     51 H19         6.7854   -0.8212   -0.1482 H         1 PAL         0.1465 
     52 H20         8.7714    2.6225    0.9739 H         1 PAL         0.0262 
     53 H21         6.0393    0.7142   -1.7194 H         1 PAL         0.0446 
     54 H22         6.3661    2.4777   -1.8181 H         1 PAL         0.0446 
     55 H23         7.4394    0.2907   -3.6721 H         1 PAL         0.0378 
     56 H24         6.2551    1.5784   -4.0794 H         1 PAL         0.0378 
     57 H25         8.4618    2.0791   -4.9165 H         1 PAL         0.3658 
     58 H26         9.7301    0.8712   -3.2450 H         1 PAL         0.0378 
     59 H27        10.2391    2.5907   -3.3481 H         1 PAL         0.0378 
     60 H28         8.9861    3.1436   -1.3483 H         1 PAL         0.0446 
     61 H29        10.0416    1.7314   -1.0042 H         1 PAL         0.0446 
     62 H62         8.5372    2.1602    3.3162 H         1 PAL         0.0000 
@<TRIPOS>BOND
     1    1    2 1    
     2    1   34 1    
     3    1   35 1    
     4    1   36 1    
     5    2   12 ar   
     6    2    3 ar   
     7    3    8 ar   
     8    3    4 ar   
     9    4    5 ar   
    10    4   37 1    
    11    5    6 ar   
    12    6    7 ar   
    13    6   21 1    
    14    7    8 ar   
    15    8    9 ar   
    16    9   10 ar   
    17    9   16 1    
    18   10   11 2    
    19   10   12 ar   
    20   12   13 1    
    21   13   15 2    
    22   13   14 1    
    23   15   38 1    
    24   15   39 1    
    25   16   20 1    
    26   16   17 1    
    27   16   40 1    
    28   17   18 1    
    29   17   41 1    
    30   17   42 1    
    31   18   19 1    
    32   18   43 1    
    33   18   44 1    
    34   19   20 1    
    35   19   45 1    
    36   19   46 1    
    37   20   47 1    
    38   20   48 1    
    39   21   22 1    
    40   21   49 1    
    41   22   27 ar   
    42   22   23 ar   
    43   23   24 ar   
    44   23   50 1    
    45   24   25 ar   
    46   24   51 1    
    47   25   26 ar   
    48   25   28 1    
    49   26   27 ar   
    50   26   52 1    
    51   27   62 1    
    52   28   33 1    
    53   28   29 1    
    54   29   30 1    
    55   29   53 1    
    56   29   54 1    
    57   30   31 1    
    58   30   55 1    
    59   30   56 1    
    60   31   32 1    
    61   31   57 1    
    62   32   33 1    
    63   32   58 1    
    64   32   59 1    
    65   33   60 1    
    66   33   61 1    
@<TRIPOS>SUBSTRUCTURE
     1 PAL         1 GROUP             0       ****    0 ROOT    
@<TRIPOS>MOLECULE
6-acetyl-8-cyclopentyl-5-methyl-2-[(5-piperazin-1-yl-2-pyridyl)amino]pyrido[2,3-d]pyrimidin-7-one
62   66    1
SMALL
USER_CHARGES


@<TRIPOS>ATOM
      1 C1          4.9750   -4.3687    8.2246 C.3       1 PAL        -0.0814 
      2 C2          4.8939   -4.3277    6.7159 C.ar      1 PAL         0.0910 
      3 C3          5.5384   -3.1663    6.0616 C.ar      1 PAL        -0.4206 
      4 C4          6.1398   -2.1177    6.7544 C.ar      1 PAL         0.5133 
      5 N1          6.7373   -1.0526    6.1789 N.ar      1 PAL        -0.7559 
      6 C5          6.7185   -1.0565    4.8410 C.ar      1 PAL         0.9320 
      7 N2          6.1704   -1.9953    4.0528 N.ar      1 PAL        -0.8135 
      8 C6          5.5784   -3.0463    4.6779 C.ar      1 PAL         0.6341 
      9 N3          4.9705   -4.0587    3.8852 N.pl3     1 PAL        -0.4117 
     10 C7          4.3257   -5.1561    4.4402 C.ar      1 PAL         0.7214 
     11 O1          3.7799   -6.0372    3.7729 O.2       1 PAL        -0.6119 
     12 C8          4.3010   -5.2588    5.9395 C.ar      1 PAL        -0.2848 
     13 C9          3.6031   -6.4143    6.5411 C.2       1 PAL         0.6020 
     14 O2          4.2165   -7.1990    7.2571 O.2       1 PAL        -0.5096 
     15 C10         2.1387   -6.5731    6.2481 C.3       1 PAL        -0.1929 
     16 C11         5.0348   -3.9014    2.4433 C.3       1 PAL         0.0909 
     17 C12         3.6612   -3.9388    1.7844 C.3       1 PAL        -0.0924 
     18 C13         3.9735   -4.2125    0.3155 C.3       1 PAL        -0.0771 
     19 C14         5.3257   -4.9307    0.2972 C.3       1 PAL        -0.0771 
     20 C15         5.7574   -5.0537    1.7562 C.3       1 PAL        -0.0924 
     21 N4          7.3343    0.0355    4.1922 N.2       1 PAL        -0.8124 
     22 C16         7.5051    0.3638    2.8341 C.ar      1 PAL         0.6024 
     23 C17         6.9879   -0.5181    1.8990 C.ar      1 PAL        -0.2062 
     24 C18         7.1448   -0.2057    0.5532 C.ar      1 PAL        -0.1109 
     25 C19         7.8094    0.9601    0.1889 C.ar      1 PAL         0.0140 
     26 C20         8.2920    1.7746    1.2005 C.ar      1 PAL         0.3764 
     27 N5          8.1555    1.5062    2.5184 N.2       1 PAL        -0.6854 
     28 N6          7.9853    1.2998   -1.1572 N.pl3     1 PAL        -0.6436 
     29 C21         6.7863    1.4784   -1.9874 C.3       1 PAL         0.1900 
     30 C22         7.1339    1.3305   -3.4682 C.3       1 PAL         0.1592 
     31 N7          8.2327    2.2167   -3.8494 N.4       1 PAL        -0.8173 
     32 C23         9.4240    1.9086   -3.0600 C.3       1 PAL         0.1592 
     33 C24         9.1616    2.0765   -1.5635 C.3       1 PAL         0.1900 
     34 H1          5.5140   -3.4810    8.5871 H         1 PAL         0.0605 
     35 H2          5.5108   -5.2767    8.5384 H         1 PAL         0.0605 
     36 H3          3.9590   -4.3784    8.6462 H         1 PAL         0.0605 
     37 H4          6.1676   -2.0817    7.8391 H         1 PAL         0.0336 
     38 H5          1.7577   -7.4696    6.7589 H         1 PAL         0.0670 
     39 H6          1.9913   -6.6787    5.1631 H         1 PAL         0.0670 
     40 H7          1.5947   -5.6871    6.6075 H         1 PAL         0.0670 
     41 H8          5.5495   -2.9317    2.3743 H         1 PAL         0.0934 
     42 H9          3.0582   -4.7387    2.2389 H         1 PAL         0.0595 
     43 H10         3.1577   -2.9719    1.9310 H         1 PAL         0.0595 
     44 H11         3.1827   -4.8437   -0.1160 H         1 PAL         0.0439 
     45 H12         4.0223   -3.2600   -0.2326 H         1 PAL         0.0439 
     46 H13         5.2086   -5.9210   -0.1671 H         1 PAL         0.0439 
     47 H14         6.0483   -4.3372   -0.2821 H         1 PAL         0.0439 
     48 H15         6.8435   -4.9324    1.8818 H         1 PAL         0.0595 
     49 H16         5.4403   -6.0060    2.2064 H         1 PAL         0.0595 
     50 H18         6.5122   -1.3564    2.1655 H         1 PAL         0.1646 
     51 H19         6.7820   -0.8192   -0.1481 H         1 PAL         0.1465 
     52 H20         8.7755    2.6201    0.9738 H         1 PAL         0.0262 
     53 H21         6.0377    0.7186   -1.7185 H         1 PAL         0.0446 
     54 H22         6.3683    2.4815   -1.8169 H         1 PAL         0.0446 
     55 H23         7.4358    0.2926   -3.6721 H         1 PAL         0.0378 
     56 H24         6.2541    1.5831   -4.0784 H         1 PAL         0.0378 
     57 H25         8.4614    2.0792   -4.9165 H         1 PAL         0.3658 
     58 H26         9.7280    0.8680   -3.2460 H         1 PAL         0.0378 
     59 H27        10.2407    2.5864   -3.3489 H         1 PAL         0.0378 
     60 H28         8.9900    3.1415   -1.3483 H         1 PAL         0.0446 
     61 H29        10.0426    1.7269   -1.0051 H         1 PAL         0.0446 
     62 H62         7.9405    3.2617   -3.6688 H         1 PAL         0.0000 
@<TRIPOS>BOND
     1    1    2 1    
     2    1   34 1    
     3    1   35 1    
     4    1   36 1    
     5    2   12 ar   
     6    2    3 ar   
     7    3    8 ar   
     8    3    4 ar   
     9    4    5 ar   
    10    4   37 1    
    11    5    6 ar   
    12    6    7 ar   
    13    6   21 1    
    14    7    8 ar   
    15    8    9 ar   
    16    9   10 ar   
    17    9   16 1    
    18   10   11 2    
    19   10   12 ar   
    20   12   13 1    
    21   13   14 2    
    22   13   15 1    
    23   15   38 1    
    24   15   39 1    
    25   15   40 1    
    26   16   20 1    
    27   16   17 1    
    28   16   41 1    
    29   17   18 1    
    30   17   42 1    
    31   17   43 1    
    32   18   19 1    
    33   18   44 1    
    34   18   45 1    
    35   19   20 1    
    36   19   46 1    
    37   19   47 1    
    38   20   48 1    
    39   20   49 1    
    40   21   22 2    
    41   22   23 ar   
    42   22   27 ar   
    43   23   24 ar   
    44   23   50 1    
    45   24   25 ar   
    46   24   51 1    
    47   25   26 ar   
    48   25   28 1    
    49   26   27 ar   
    50   26   52 1    
    51   28   33 1    
    52   28   29 1    
    53   29   30 1    
    54   29   53 1    
    55   29   54 1    
    56   30   31 1    
    57   30   55 1    
    58   30   56 1    
    59   31   32 1    
    60   31   57 1    
    61   31   62 1    
    62   32   33 1    
    63   32   58 1    
    64   32   59 1    
    65   33   60 1    
    66   33   61 1    
@<TRIPOS>SUBSTRUCTURE
     1 PAL         1 GROUP             0       ****    0 ROOT    
@<TRIPOS>MOLECULE
6-acetyl-8-cyclopentyl-5-methyl-2-[(5-piperazin-1-yl-2-pyridyl)amino]pyrido[2,3-d]pyrimidin-7-one
62   66    1
SMALL
USER_CHARGES


@<TRIPOS>ATOM
      1 C1          8.4304    2.0117   10.2019 C.3       1 PAL        -0.0814 
      2 C2          8.8647    2.6496    8.9024 C.ar      1 PAL         0.0910 
      3 C3          8.4582    1.9456    7.6649 C.ar      1 PAL        -0.4206 
      4 C4          7.7716    0.7333    7.6489 C.ar      1 PAL         0.5133 
      5 N1          7.3868    0.0770    6.5337 N.ar      1 PAL        -0.7559 
      6 C5          7.7181    0.6816    5.3870 C.ar      1 PAL         0.9320 
      7 N2          8.3815    1.8420    5.2587 N.ar      1 PAL        -0.8135 
      8 C6          8.7502    2.4638    6.4091 C.ar      1 PAL         0.6341 
      9 N3          9.4684    3.6884    6.3241 N.pl3     1 PAL        -0.4117 
     10 C7          9.9022    4.3801    7.4473 C.ar      1 PAL         0.7214 
     11 O1         10.5383    5.4347    7.3966 O.2       1 PAL        -0.6119 
     12 C8          9.5692    3.7953    8.7913 C.ar      1 PAL        -0.2848 
     13 C9         10.0403    4.5147    9.9932 C.2       1 PAL         0.6020 
     14 O2          9.2329    4.9264   10.8198 O.2       1 PAL        -0.5096 
     15 C10        11.5212    4.7052   10.1551 C.3       1 PAL        -0.1929 
     16 C11         9.7526    4.2009    4.9957 C.3       1 PAL         0.0909 
     17 C12        11.2379    4.4531    4.7664 C.3       1 PAL        -0.0924 
     18 C13        11.2633    5.3758    3.5507 C.3       1 PAL        -0.0771 
     19 C14         9.9145    6.1007    3.5416 C.3       1 PAL        -0.0771 
     20 C15         9.1470    5.5780    4.7531 C.3       1 PAL        -0.0924 
     21 N4          7.3343    0.0355    4.1922 N.2       1 PAL        -0.8124 
     22 C16         7.5051    0.3638    2.8341 C.ar      1 PAL         0.6024 
     23 C17         6.9879   -0.5181    1.8990 C.ar      1 PAL        -0.2062 
     24 C18         7.1448   -0.2057    0.5532 C.ar      1 PAL        -0.1109 
     25 C19         7.8094    0.9601    0.1889 C.ar      1 PAL         0.0140 
     26 C20         8.2920    1.7746    1.2005 C.ar      1 PAL         0.3764 
     27 N5          8.1555    1.5062    2.5184 N.2       1 PAL        -0.6854 
     28 N6          7.9853    1.2998   -1.1572 N.pl3     1 PAL        -0.6436 
     29 C21         6.7863    1.4784   -1.9874 C.3       1 PAL         0.1900 
     30 C22         7.1339    1.3305   -3.4682 C.3       1 PAL         0.1592 
     31 N7          8.2327    2.2167   -3.8494 N.4       1 PAL        -0.8173 
     32 C23         9.4240    1.9086   -3.0600 C.3       1 PAL         0.1592 
     33 C24         9.1616    2.0765   -1.5635 C.3       1 PAL         0.1900 
     34 H1          7.8726    1.0879    9.9885 H         1 PAL         0.0605 
     35 H2          7.7854    2.7099   10.7555 H         1 PAL         0.0605 
     36 H3          9.3172    1.7730   10.8075 H         1 PAL         0.0605 
     37 H4          7.4927    0.2145    8.5609 H         1 PAL         0.0336 
     38 H5         11.7206    5.2527   11.0881 H         1 PAL         0.0670 
     39 H6         11.9123    5.2793    9.3022 H         1 PAL         0.0670 
     40 H7         12.0151    3.7231   10.1934 H         1 PAL         0.0670 
     41 H8          9.3241    3.3970    4.3792 H         1 PAL         0.0934 
     42 H9         11.6714    4.9272    5.6594 H         1 PAL         0.0595 
     43 H10        11.7470    3.4969    4.5753 H         1 PAL         0.0595 
     44 H11        12.0961    6.0878    3.6482 H         1 PAL         0.0439 
     45 H12        11.3982    4.7764    2.6383 H         1 PAL         0.0439 
     46 H13        10.0808    7.1856    3.6146 H         1 PAL         0.0439 
     47 H14         9.3824    5.8734    2.6061 H         1 PAL         0.0439 
     48 H15         8.0703    5.4749    4.5524 H         1 PAL         0.0595 
     49 H16         9.2953    6.2060    5.6439 H         1 PAL         0.0595 
     50 H18         6.5122   -1.3564    2.1655 H         1 PAL         0.1646 
     51 H19         6.7820   -0.8192   -0.1481 H         1 PAL         0.1465 
     52 H20         8.7755    2.6201    0.9738 H         1 PAL         0.0262 
     53 H21         6.0377    0.7186   -1.7185 H         1 PAL         0.0446 
     54 H22         6.3683    2.4815   -1.8169 H         1 PAL         0.0446 
     55 H23         7.4358    0.2926   -3.6721 H         1 PAL         0.0378 
     56 H24         6.2541    1.5831   -4.0784 H         1 PAL         0.0378 
     57 H25         8.4614    2.0792   -4.9165 H         1 PAL         0.3658 
     58 H26         9.7280    0.8680   -3.2460 H         1 PAL         0.0378 
     59 H27        10.2407    2.5864   -3.3489 H         1 PAL         0.0378 
     60 H28         8.9900    3.1415   -1.3483 H         1 PAL         0.0446 
     61 H29        10.0426    1.7269   -1.0051 H         1 PAL         0.0446 
     62 H62         7.9405    3.2617   -3.6688 H         1 PAL         0.0000 
@<TRIPOS>BOND
     1    1    2 1    
     2    1   34 1    
     3    1   35 1    
     4    1   36 1    
     5    2   12 ar   
     6    2    3 ar   
     7    3    8 ar   
     8    3    4 ar   
     9    4    5 ar   
    10    4   37 1    
    11    5    6 ar   
    12    6    7 ar   
    13    6   21 1    
    14    7    8 ar   
    15    8    9 ar   
    16    9   10 ar   
    17    9   16 1    
    18   10   11 2    
    19   10   12 ar   
    20   12   13 1    
    21   13   14 2    
    22   13   15 1    
    23   15   38 1    
    24   15   39 1    
    25   15   40 1    
    26   16   20 1    
    27   16   17 1    
    28   16   41 1    
    29   17   18 1    
    30   17   42 1    
    31   17   43 1    
    32   18   19 1    
    33   18   44 1    
    34   18   45 1    
    35   19   20 1    
    36   19   46 1    
    37   19   47 1    
    38   20   48 1    
    39   20   49 1    
    40   21   22 2    
    41   22   23 ar   
    42   22   27 ar   
    43   23   24 ar   
    44   23   50 1    
    45   24   25 ar   
    46   24   51 1    
    47   25   26 ar   
    48   25   28 1    
    49   26   27 ar   
    50   26   52 1    
    51   28   33 1    
    52   28   29 1    
    53   29   30 1    
    54   29   53 1    
    55   29   54 1    
    56   30   31 1    
    57   30   55 1    
    58   30   56 1    
    59   31   32 1    
    60   31   57 1    
    61   31   62 1    
    62   32   33 1    
    63   32   58 1    
    64   32   59 1    
    65   33   60 1    
    66   33   61 1    
@<TRIPOS>SUBSTRUCTURE
     1 PAL         1 GROUP             0       ****    0 ROOT    
@<TRIPOS>MOLECULE
6-acetyl-8-cyclopentyl-5-methyl-2-[(5-piperazin-1-yl-2-pyridyl)amino]pyrido[2,3-d]pyrimidin-7-one
63   67    1
SMALL
USER_CHARGES


@<TRIPOS>ATOM
      1 C1          8.4256    2.0145   10.2019 C.3       1 PAL        -0.0814 
      2 C2          8.8610    2.6517    8.9024 C.ar      1 PAL         0.0910 
      3 C3          8.4547    1.9476    7.6649 C.ar      1 PAL        -0.4206 
      4 C4          7.7673    0.7358    7.6490 C.ar      1 PAL         0.5133 
      5 N1          7.3827    0.0794    6.5338 N.ar      1 PAL        -0.7559 
      6 C5          7.7150    0.6834    5.3870 C.ar      1 PAL         0.9320 
      7 N2          8.3793    1.8433    5.2587 N.ar      1 PAL        -0.8135 
      8 C6          8.7478    2.4652    6.4091 C.ar      1 PAL         0.6341 
      9 N3          9.4669    3.6893    6.3241 N.pl3     1 PAL        -0.4117 
     10 C7          9.9005    4.3810    7.4473 C.ar      1 PAL         0.7214 
     11 O1         10.5374    5.4352    7.3967 O.2       1 PAL        -0.6119 
     12 C8          9.5664    3.7969    8.7913 C.ar      1 PAL        -0.2848 
     13 C9         10.0373    4.5164    9.9933 C.2       1 PAL         0.6020 
     14 O2          9.2297    4.9289   10.8193 O.2       1 PAL        -0.5096 
     15 C10        11.5182    4.7059   10.1559 C.3       1 PAL        -0.1929 
     16 C11         9.7522    4.2011    4.9957 C.3       1 PAL         0.0909 
     17 C12        11.2378    4.4522    4.7672 C.3       1 PAL        -0.0924 
     18 C13        11.2645    5.3745    3.5512 C.3       1 PAL        -0.0771 
     19 C14         9.9162    6.1003    3.5411 C.3       1 PAL        -0.0771 
     20 C15         9.1476    5.5786    4.7523 C.3       1 PAL        -0.0924 
     21 N4          7.3314    0.0371    4.1922 N.4       1 PAL        -0.8124 
     22 C16         7.5032    0.3649    2.8341 C.ar      1 PAL         0.6024 
     23 C17         6.9874   -0.5178    1.8990 C.ar      1 PAL        -0.2062 
     24 C18         7.1492   -0.2082    0.5532 C.ar      1 PAL        -0.1109 
     25 C19         7.8126    0.9582    0.1889 C.ar      1 PAL         0.0140 
     26 C20         8.2898    1.7759    1.2005 C.ar      1 PAL         0.3764 
     27 N5          8.1532    1.5075    2.5184 N.ar      1 PAL        -0.6854 
     28 N6          7.9910    1.2966   -1.1573 N.pl3     1 PAL        -0.6436 
     29 C21         6.7936    1.4718   -1.9905 C.3       1 PAL         0.1900 
     30 C22         7.1449    1.3227   -3.4703 C.3       1 PAL         0.1592 
     31 N7          8.2430    2.2104   -3.8501 N.3       1 PAL        -0.8173 
     32 C23         9.4330    1.9055   -3.0575 C.3       1 PAL         0.1592 
     33 C24         9.1668    2.0748   -1.5619 C.3       1 PAL         0.1900 
     34 H1          7.8673    1.0911    9.9885 H         1 PAL         0.0605 
     35 H2          7.7808    2.7133   10.7549 H         1 PAL         0.0605 
     36 H3          9.3119    1.7754   10.8080 H         1 PAL         0.0605 
     37 H4          7.4875    0.2175    8.5610 H         1 PAL         0.0336 
     38 H5         11.7175    5.2535   11.0888 H         1 PAL         0.0670 
     39 H6         11.9103    5.2795    9.3031 H         1 PAL         0.0670 
     40 H7         12.0115    3.7235   10.1949 H         1 PAL         0.0670 
     41 H8          9.3234    3.3973    4.3792 H         1 PAL         0.0934 
     42 H9         11.6711    4.9263    5.6602 H         1 PAL         0.0595 
     43 H10        11.7463    3.4956    4.5767 H         1 PAL         0.0595 
     44 H11        12.0977    6.0860    3.6489 H         1 PAL         0.0439 
     45 H12        11.3995    4.7748    2.6390 H         1 PAL         0.0439 
     46 H13        10.0832    7.1851    3.6138 H         1 PAL         0.0439 
     47 H14         9.3845    5.8731    2.6053 H         1 PAL         0.0439 
     48 H15         8.0710    5.4761    4.5510 H         1 PAL         0.0595 
     49 H16         9.2959    6.2068    5.6430 H         1 PAL         0.0595 
     50 H17         6.2575   -0.0359    4.4187 H         1 PAL         0.4652 
     51 H18         6.5109   -1.3557    2.1655 H         1 PAL         0.1646 
     52 H19         6.7893   -0.8234   -0.1482 H         1 PAL         0.1465 
     53 H20         8.7716    2.6224    0.9739 H         1 PAL         0.0262 
     54 H21         6.0458    0.7110   -1.7223 H         1 PAL         0.0446 
     55 H22         6.3733    2.4743   -1.8223 H         1 PAL         0.0446 
     56 H23         7.4492    0.2850   -3.6721 H         1 PAL         0.0378 
     57 H24         6.2661    1.5728   -4.0829 H         1 PAL         0.0378 
     58 H25         8.4745    2.0718   -4.9165 H         1 PAL         0.3658 
     59 H26         9.7394    0.8652   -3.2414 H         1 PAL         0.0378 
     60 H27        10.2492    2.5845   -3.3454 H         1 PAL         0.0378 
     61 H28         8.9928    3.1398   -1.3485 H         1 PAL         0.0446 
     62 H29        10.0471    1.7277   -1.0010 H         1 PAL         0.0446 
     63 H63         7.8165   -0.9279    4.4007 H         1 PAL         0.0000 
@<TRIPOS>BOND
     1    1    2 1    
     2    1   34 1    
     3    1   35 1    
     4    1   36 1    
     5    2   12 ar   
     6    2    3 ar   
     7    3    8 ar   
     8    3    4 ar   
     9    4    5 ar   
    10    4   37 1    
    11    5    6 ar   
    12    6    7 ar   
    13    6   21 1    
    14    7    8 ar   
    15    8    9 ar   
    16    9   10 ar   
    17    9   16 1    
    18   10   11 2    
    19   10   12 ar   
    20   12   13 1    
    21   13   14 2    
    22   13   15 1    
    23   15   38 1    
    24   15   39 1    
    25   15   40 1    
    26   16   20 1    
    27   16   17 1    
    28   16   41 1    
    29   17   18 1    
    30   17   42 1    
    31   17   43 1    
    32   18   19 1    
    33   18   44 1    
    34   18   45 1    
    35   19   20 1    
    36   19   46 1    
    37   19   47 1    
    38   20   48 1    
    39   20   49 1    
    40   21   22 1    
    41   21   63 1    
    42   21   50 1    
    43   22   27 ar   
    44   22   23 ar   
    45   23   24 ar   
    46   23   51 1    
    47   24   52 1    
    48   24   25 ar   
    49   25   28 1    
    50   25   26 ar   
    51   26   53 1    
    52   26   27 ar   
    53   28   33 1    
    54   28   29 1    
    55   29   30 1    
    56   29   54 1    
    57   29   55 1    
    58   30   31 1    
    59   30   56 1    
    60   30   57 1    
    61   31   32 1    
    62   31   58 1    
    63   32   33 1    
    64   32   59 1    
    65   32   60 1    
    66   33   61 1    
    67   33   62 1    
@<TRIPOS>SUBSTRUCTURE
     1 PAL         1 GROUP             0       ****    0 ROOT    
@<TRIPOS>MOLECULE
6-acetyl-8-cyclopentyl-5-methyl-2-[(5-piperazin-1-yl-2-pyridyl)amino]pyrido[2,3-d]pyrimidin-7-one
64   68    1
SMALL
USER_CHARGES


@<TRIPOS>ATOM
      1 C1          8.4256    2.0145   10.2019 C.3       1 PAL        -0.0814 
      2 C2          8.8610    2.6517    8.9024 C.ar      1 PAL         0.0910 
      3 C3          8.4547    1.9476    7.6649 C.ar      1 PAL        -0.4206 
      4 C4          7.7673    0.7358    7.6490 C.ar      1 PAL         0.5133 
      5 N1          7.3827    0.0794    6.5338 N.pl3     1 PAL        -0.7559 
      6 C5          7.7150    0.6834    5.3870 C.ar      1 PAL         0.9320 
      7 N2          8.3793    1.8433    5.2587 N.ar      1 PAL        -0.8135 
      8 C6          8.7478    2.4652    6.4091 C.ar      1 PAL         0.6341 
      9 N3          9.4669    3.6893    6.3241 N.pl3     1 PAL        -0.4117 
     10 C7          9.9005    4.3810    7.4473 C.ar      1 PAL         0.7214 
     11 O1         10.5374    5.4352    7.3967 O.2       1 PAL        -0.6119 
     12 C8          9.5664    3.7969    8.7913 C.ar      1 PAL        -0.2848 
     13 C9         10.0373    4.5164    9.9933 C.2       1 PAL         0.6020 
     14 O2          9.2297    4.9289   10.8193 O.2       1 PAL        -0.5096 
     15 C10        11.5182    4.7059   10.1559 C.3       1 PAL        -0.1929 
     16 C11         9.7522    4.2011    4.9957 C.3       1 PAL         0.0909 
     17 C12        11.2378    4.4522    4.7672 C.3       1 PAL        -0.0924 
     18 C13        11.2645    5.3745    3.5512 C.3       1 PAL        -0.0771 
     19 C14         9.9162    6.1003    3.5411 C.3       1 PAL        -0.0771 
     20 C15         9.1476    5.5786    4.7523 C.3       1 PAL        -0.0924 
     21 N4          7.3314    0.0371    4.1922 N.pl3     1 PAL        -0.8124 
     22 C16         7.5032    0.3649    2.8341 C.ar      1 PAL         0.6024 
     23 C17         6.9859   -0.5170    1.8990 C.ar      1 PAL        -0.2062 
     24 C18         7.1462   -0.2065    0.5532 C.ar      1 PAL        -0.1109 
     25 C19         7.8095    0.9600    0.1889 C.ar      1 PAL         0.0140 
     26 C20         8.2898    1.7759    1.2005 C.ar      1 PAL         0.3764 
     27 N5          8.1532    1.5075    2.5184 N.ar      1 PAL        -0.6854 
     28 N6          7.9854    1.2998   -1.1572 N.pl3     1 PAL        -0.6436 
     29 C21         6.7864    1.4755   -1.9881 C.3       1 PAL         0.1900 
     30 C22         7.1351    1.3280   -3.4687 C.3       1 PAL         0.1592 
     31 N7          8.2322    2.2165   -3.8495 N.4       1 PAL        -0.8173 
     32 C23         9.4237    1.9112   -3.0594 C.3       1 PAL         0.1592 
     33 C24         9.1602    2.0789   -1.5631 C.3       1 PAL         0.1900 
     34 H1          7.8673    1.0911    9.9885 H         1 PAL         0.0605 
     35 H2          7.7808    2.7133   10.7549 H         1 PAL         0.0605 
     36 H3          9.3119    1.7754   10.8080 H         1 PAL         0.0605 
     37 H4          7.4875    0.2175    8.5610 H         1 PAL         0.0336 
     38 H5         11.7175    5.2535   11.0888 H         1 PAL         0.0670 
     39 H6         11.9103    5.2795    9.3031 H         1 PAL         0.0670 
     40 H7         12.0115    3.7235   10.1949 H         1 PAL         0.0670 
     41 H8          9.3234    3.3973    4.3792 H         1 PAL         0.0934 
     42 H9         11.6711    4.9263    5.6602 H         1 PAL         0.0595 
     43 H10        11.7463    3.4956    4.5767 H         1 PAL         0.0595 
     44 H11        12.0977    6.0860    3.6489 H         1 PAL         0.0439 
     45 H12        11.3995    4.7748    2.6390 H         1 PAL         0.0439 
     46 H13        10.0832    7.1851    3.6138 H         1 PAL         0.0439 
     47 H14         9.3845    5.8731    2.6053 H         1 PAL         0.0439 
     48 H15         8.0710    5.4761    4.5510 H         1 PAL         0.0595 
     49 H16         9.2959    6.2068    5.6430 H         1 PAL         0.0595 
     50 H17         6.7859   -0.9172    4.2338 H         1 PAL         0.4652 
     51 H18         6.4691   -1.4249    2.1922 H         1 PAL         0.1646 
     52 H19         6.7514   -0.8795   -0.2031 H         1 PAL         0.1465 
     53 H20         8.8157    2.6997    0.9786 H         1 PAL         0.0262 
     54 H21         6.0393    0.7142   -1.7194 H         1 PAL         0.0446 
     55 H22         6.3661    2.4777   -1.8181 H         1 PAL         0.0446 
     56 H23         7.4394    0.2907   -3.6721 H         1 PAL         0.0378 
     57 H24         6.2551    1.5784   -4.0794 H         1 PAL         0.0378 
     58 H25         8.4618    2.0791   -4.9165 H         1 PAL         0.3658 
     59 H26         9.7301    0.8712   -3.2450 H         1 PAL         0.0378 
     60 H27        10.2391    2.5907   -3.3481 H         1 PAL         0.0378 
     61 H28         8.9861    3.1436   -1.3483 H         1 PAL         0.0446 
     62 H29        10.0416    1.7314   -1.0042 H         1 PAL         0.0446 
     63 H63         7.9376    3.2609   -3.6694 H         1 PAL         0.0000 
     64 H64         6.8408   -0.8743    6.6162 H         1 PAL         0.0000 
@<TRIPOS>BOND
     1    1    2 1    
     2    1   34 1    
     3    1   35 1    
     4    1   36 1    
     5    2   12 ar   
     6    2    3 ar   
     7    3    8 ar   
     8    3    4 ar   
     9    4    5 ar   
    10    4   37 1    
    11    5    6 ar   
    12    5   64 1    
    13    6    7 ar   
    14    6   21 1    
    15    7    8 ar   
    16    8    9 ar   
    17    9   10 ar   
    18    9   16 1    
    19   10   11 2    
    20   10   12 ar   
    21   12   13 1    
    22   13   14 2    
    23   13   15 1    
    24   15   38 1    
    25   15   39 1    
    26   15   40 1    
    27   16   20 1    
    28   16   17 1    
    29   16   41 1    
    30   17   18 1    
    31   17   42 1    
    32   17   43 1    
    33   18   19 1    
    34   18   44 1    
    35   18   45 1    
    36   19   20 1    
    37   19   46 1    
    38   19   47 1    
    39   20   48 1    
    40   20   49 1    
    41   21   22 1    
    42   21   50 1    
    43   22   27 ar   
    44   22   23 ar   
    45   23   24 ar   
    46   23   51 1    
    47   24   25 ar   
    48   24   52 1    
    49   25   26 ar   
    50   25   28 1    
    51   26   27 ar   
    52   26   53 1    
    53   28   33 1    
    54   28   29 1    
    55   29   30 1    
    56   29   54 1    
    57   29   55 1    
    58   30   31 1    
    59   30   56 1    
    60   30   57 1    
    61   31   32 1    
    62   31   58 1    
    63   31   63 1    
    64   32   33 1    
    65   32   59 1    
    66   32   60 1    
    67   33   61 1    
    68   33   62 1    
@<TRIPOS>SUBSTRUCTURE
     1 PAL         1 GROUP             0       ****    0 ROOT    
@<TRIPOS>MOLECULE
6-acetyl-8-cyclopentyl-5-methyl-2-[(5-piperazin-1-yl-2-pyridyl)amino]pyrido[2,3-d]pyrimidin-7-one
63   67    1
SMALL
USER_CHARGES


@<TRIPOS>ATOM
      1 C1          8.4256    2.0145   10.2019 C.3       1 PAL        -0.0814 
      2 C2          8.8610    2.6517    8.9024 C.ar      1 PAL         0.0910 
      3 C3          8.4547    1.9476    7.6649 C.ar      1 PAL        -0.4206 
      4 C4          7.7673    0.7358    7.6490 C.ar      1 PAL         0.5133 
      5 N1          7.3827    0.0794    6.5338 N.ar      1 PAL        -0.7559 
      6 C5          7.7150    0.6834    5.3870 C.ar      1 PAL         0.9320 
      7 N2          8.3793    1.8433    5.2587 N.ar      1 PAL        -0.8135 
      8 C6          8.7478    2.4652    6.4091 C.ar      1 PAL         0.6341 
      9 N3          9.4669    3.6893    6.3241 N.pl3     1 PAL        -0.4117 
     10 C7          9.9005    4.3810    7.4473 C.ar      1 PAL         0.7214 
     11 O1         10.5374    5.4352    7.3967 O.co2     1 PAL        -0.6119 
     12 C8          9.5664    3.7969    8.7913 C.ar      1 PAL        -0.2848 
     13 C9         10.0373    4.5164    9.9933 C.2       1 PAL         0.6020 
     14 O2          9.2297    4.9289   10.8193 O.2       1 PAL        -0.5096 
     15 C10        11.5182    4.7059   10.1559 C.3       1 PAL        -0.1929 
     16 C11         9.7522    4.2011    4.9957 C.3       1 PAL         0.0909 
     17 C12        11.2378    4.4522    4.7672 C.3       1 PAL        -0.0924 
     18 C13        11.2645    5.3745    3.5512 C.3       1 PAL        -0.0771 
     19 C14         9.9162    6.1003    3.5411 C.3       1 PAL        -0.0771 
     20 C15         9.1476    5.5786    4.7523 C.3       1 PAL        -0.0924 
     21 N4          7.3314    0.0371    4.1922 N.2       1 PAL        -0.8124 
     22 C16         7.5032    0.3649    2.8341 C.ar      1 PAL         0.6024 
     23 C17         6.9859   -0.5170    1.8990 C.ar      1 PAL        -0.2062 
     24 C18         7.1462   -0.2065    0.5532 C.ar      1 PAL        -0.1109 
     25 C19         7.8095    0.9600    0.1889 C.ar      1 PAL         0.0140 
     26 C20         8.2898    1.7759    1.2005 C.ar      1 PAL         0.3764 
     27 N5          8.1532    1.5075    2.5184 N.pl3     1 PAL        -0.6854 
     28 N6          7.9854    1.2998   -1.1572 N.pl3     1 PAL        -0.6436 
     29 C21         6.7864    1.4755   -1.9881 C.3       1 PAL         0.1900 
     30 C22         7.1351    1.3280   -3.4687 C.3       1 PAL         0.1592 
     31 N7          8.2322    2.2165   -3.8495 N.4       1 PAL        -0.8173 
     32 C23         9.4237    1.9112   -3.0594 C.3       1 PAL         0.1592 
     33 C24         9.1602    2.0789   -1.5631 C.3       1 PAL         0.1900 
     34 H1          7.8673    1.0911    9.9885 H         1 PAL         0.0605 
     35 H2          7.7808    2.7133   10.7549 H         1 PAL         0.0605 
     36 H3          9.3119    1.7754   10.8080 H         1 PAL         0.0605 
     37 H4          7.4875    0.2175    8.5610 H         1 PAL         0.0336 
     38 H5         11.7175    5.2535   11.0888 H         1 PAL         0.0670 
     39 H6         11.9103    5.2795    9.3031 H         1 PAL         0.0670 
     40 H7         12.0115    3.7235   10.1949 H         1 PAL         0.0670 
     41 H8          9.3234    3.3973    4.3792 H         1 PAL         0.0934 
     42 H9         11.6711    4.9263    5.6602 H         1 PAL         0.0595 
     43 H10        11.7463    3.4956    4.5767 H         1 PAL         0.0595 
     44 H11        12.0977    6.0860    3.6489 H         1 PAL         0.0439 
     45 H12        11.3995    4.7748    2.6390 H         1 PAL         0.0439 
     46 H13        10.0832    7.1851    3.6138 H         1 PAL         0.0439 
     47 H14         9.3845    5.8731    2.6053 H         1 PAL         0.0439 
     48 H15         8.0710    5.4761    4.5510 H         1 PAL         0.0595 
     49 H16         9.2959    6.2068    5.6430 H         1 PAL         0.0595 
     50 H18         6.4691   -1.4249    2.1922 H         1 PAL         0.1646 
     51 H19         6.7514   -0.8795   -0.2031 H         1 PAL         0.1465 
     52 H20         8.8157    2.6997    0.9786 H         1 PAL         0.0262 
     53 H21         6.0393    0.7142   -1.7194 H         1 PAL         0.0446 
     54 H22         6.3661    2.4777   -1.8181 H         1 PAL         0.0446 
     55 H23         7.4394    0.2907   -3.6721 H         1 PAL         0.0378 
     56 H24         6.2551    1.5784   -4.0794 H         1 PAL         0.0378 
     57 H25         8.4618    2.0791   -4.9165 H         1 PAL         0.3658 
     58 H26         9.7301    0.8712   -3.2450 H         1 PAL         0.0378 
     59 H27        10.2391    2.5907   -3.3481 H         1 PAL         0.0378 
     60 H28         8.9861    3.1436   -1.3483 H         1 PAL         0.0446 
     61 H29        10.0416    1.7314   -1.0042 H         1 PAL         0.0446 
     62 H62         7.9376    3.2609   -3.6694 H         1 PAL         0.0000 
     63 H63         8.5372    2.1602    3.3162 H         1 PAL         0.0000 
@<TRIPOS>BOND
     1    1    2 1    
     2    1   34 1    
     3    1   35 1    
     4    1   36 1    
     5    2   12 ar   
     6    2    3 ar   
     7    3    8 ar   
     8    3    4 ar   
     9    4    5 ar   
    10    4   37 1    
    11    5    6 ar   
    12    6    7 ar   
    13    6   21 2    
    14    7    8 ar   
    15    8    9 ar   
    16    9   10 ar   
    17    9   16 1    
    18   10   11 1    
    19   10   12 ar   
    20   12   13 1    
    21   13   14 2    
    22   13   15 1    
    23   15   38 1    
    24   15   39 1    
    25   15   40 1    
    26   16   20 1    
    27   16   17 1    
    28   16   41 1    
    29   17   18 1    
    30   17   42 1    
    31   17   43 1    
    32   18   19 1    
    33   18   44 1    
    34   18   45 1    
    35   19   20 1    
    36   19   46 1    
    37   19   47 1    
    38   20   48 1    
    39   20   49 1    
    40   21   22 1    
    41   22   27 ar   
    42   22   23 ar   
    43   23   24 ar   
    44   23   50 1    
    45   24   25 ar   
    46   24   51 1    
    47   25   26 ar   
    48   25   28 1    
    49   26   27 ar   
    50   26   52 1    
    51   27   63 1    
    52   28   33 1    
    53   28   29 1    
    54   29   30 1    
    55   29   53 1    
    56   29   54 1    
    57   30   31 1    
    58   30   55 1    
    59   30   56 1    
    60   31   32 1    
    61   31   57 1    
    62   31   62 1    
    63   32   33 1    
    64   32   58 1    
    65   32   59 1    
    66   33   60 1    
    67   33   61 1    
@<TRIPOS>SUBSTRUCTURE
     1 PAL         1 GROUP             0       ****    0 ROOT    
