@<TRIPOS>MOLECULE
6-acetyl-8-cyclopentyl-5-methyl-2-[(5-piperazin-1-yl-2-pyridyl)amino]pyrido[2,3-d]pyrimidin-7-one
   62    66     0     0     0
SMALL
USER_CHARGES

@<TRIPOS>ATOM
      1 C1          8.4256    2.0145   10.2019 C.3       1 PAL        -0.0817
      2 C2          8.8610    2.6517    8.9024 C.2       1 PAL         0.0909
      3 C3          8.4547    1.9476    7.6649 C.ar      1 PAL        -0.4196
      4 C4          7.7673    0.7358    7.6490 C.ar      1 PAL         0.5136
      5 N1          7.3827    0.0794    6.5338 N.ar      1 PAL        -0.7570
      6 C5          7.7150    0.6834    5.3870 C.ar      1 PAL         0.9330
      7 N2          8.3793    1.8433    5.2587 N.ar      1 PAL        -0.8134
      8 C6          8.7478    2.4652    6.4091 C.ar      1 PAL         0.6342
      9 N3          9.4669    3.6893    6.3241 N.am      1 PAL        -0.4111
     10 C7          9.9005    4.3810    7.4473 C.2       1 PAL         0.7209
     11 O1         10.5374    5.4352    7.3967 O.2       1 PAL        -0.6135
     12 C8          9.5664    3.7969    8.7913 C.2       1 PAL        -0.2838
     13 C9         10.0373    4.5164    9.9933 C.2       1 PAL         0.6018
     14 O2          9.2297    4.9289   10.8193 O.2       1 PAL        -0.5102
     15 C10        11.5183    4.7059   10.1559 C.3       1 PAL        -0.1926
     16 C11         9.7522    4.2011    4.9957 C.3       1 PAL         0.0906
     17 C12        11.2378    4.4522    4.7672 C.3       1 PAL        -0.0927
     18 C13        11.2645    5.3745    3.5512 C.3       1 PAL        -0.0771
     19 C14         9.9162    6.1003    3.5411 C.3       1 PAL        -0.0771
     20 C15         9.1476    5.5786    4.7523 C.3       1 PAL        -0.0927
     21 N4          7.3314    0.0371    4.1922 N.pl3     1 PAL        -0.8136
     22 C16         7.5032    0.3649    2.8341 C.ar      1 PAL         0.6044
     23 C17         6.9859   -0.5170    1.8990 C.ar      1 PAL        -0.2067
     24 C18         7.1462   -0.2065    0.5532 C.ar      1 PAL        -0.1110
     25 C19         7.8095    0.9600    0.1889 C.ar      1 PAL         0.0133
     26 C20         8.2898    1.7759    1.2005 C.ar      1 PAL         0.3772
     27 N5          8.1532    1.5075    2.5184 N.ar      1 PAL        -0.6859
     28 N6          7.9854    1.2998   -1.1572 N.pl3     1 PAL        -0.6444
     29 C21         6.7864    1.4755   -1.9881 C.3       1 PAL         0.1904
     30 C22         7.1351    1.3280   -3.4687 C.3       1 PAL         0.1595
     31 N7          8.2322    2.2165   -3.8495 N.3       1 PAL        -0.8185
     32 C23         9.4237    1.9112   -3.0594 C.3       1 PAL         0.1595
     33 C24         9.1602    2.0789   -1.5631 C.3       1 PAL         0.1904
     34 H1          7.4424    2.3899   10.4978 H         1 PAL         0.0605
     35 H2          9.1424    2.2423   10.9957 H         1 PAL         0.0605
     36 H3          8.3687    0.9280   10.0915 H         1 PAL         0.0605
     37 H4          7.4875    0.2175    8.5610 H         1 PAL         0.0338
     38 H5         11.8570    5.6374    9.6945 H         1 PAL         0.0670
     39 H6         12.0407    3.8705    9.6826 H         1 PAL         0.0670
     40 H7         11.7587    4.7436   11.2218 H         1 PAL         0.0670
     41 H8          9.3650    3.4684    4.2849 H         1 PAL         0.0937
     42 H9         11.6971    4.9547    5.6306 H         1 PAL         0.0597
     43 H10        11.7967    3.5235    4.5975 H         1 PAL         0.0597
     44 H11        12.1040    6.0753    3.6017 H         1 PAL         0.0440
     45 H12        11.3788    4.7907    2.6306 H         1 PAL         0.0440
     46 H13        10.0378    7.1871    3.5853 H         1 PAL         0.0440
     47 H14         9.3761    5.8671    2.6161 H         1 PAL         0.0440
     48 H15         9.3058    6.2431    5.6143 H         1 PAL         0.0597
     49 H16         8.0664    5.5342    4.5717 H         1 PAL         0.0597
     50 H17         6.8335   -0.8346    4.3445 H         1 PAL         0.4659
     51 H18         6.4691   -1.4249    2.1922 H         1 PAL         0.1639
     52 H19         6.7514   -0.8795   -0.2031 H         1 PAL         0.1468
     53 H20         8.8157    2.6997    0.9786 H         1 PAL         0.0265
     54 H21         6.0257    0.7274   -1.7237 H         1 PAL         0.0445
     55 H22         6.3489    2.4680   -1.8022 H         1 PAL         0.0445
     56 H23         7.4024    0.2875   -3.6921 H         1 PAL         0.0378
     57 H24         6.2531    1.5686   -4.0722 H         1 PAL         0.0378
     58 H25         8.4423    2.0863   -4.8387 H         1 PAL         0.3658
     59 H26         9.7594    0.8883   -3.2719 H         1 PAL         0.0378
     60 H27        10.2345    2.5837   -3.3595 H         1 PAL         0.0378
     61 H28        10.0486    1.7496   -1.0055 H         1 PAL         0.0445
     62 H29         9.0007    3.1417   -1.3267 H         1 PAL         0.0445
@<TRIPOS>BOND
     1    1    2 1
     2    2   12 2
     3    2    3 1
     4    3    8 ar
     5    3    4 ar
     6    4    5 ar
     7    5    6 ar
     8    6    7 ar
     9    7    8 ar
    10    8    9 1
    11    9   10 am
    12   10   11 2
    13   10   12 1
    14   12   13 1
    15   13   14 2
    16   13   15 1
    17    9   16 1
    18   16   20 1
    19   16   17 1
    20   17   18 1
    21   18   19 1
    22   19   20 1
    23    6   21 1
    24   21   22 1
    25   22   27 ar
    26   22   23 ar
    27   23   24 ar
    28   24   25 ar
    29   25   26 ar
    30   26   27 ar
    31   25   28 1
    32   28   33 1
    33   28   29 1
    34   29   30 1
    35   30   31 1
    36   31   32 1
    37   32   33 1
    38    1   34 1
    39    1   35 1
    40    1   36 1
    41    4   37 1
    42   15   38 1
    43   15   39 1
    44   15   40 1
    45   16   41 1
    46   17   42 1
    47   17   43 1
    48   18   44 1
    49   18   45 1
    50   19   46 1
    51   19   47 1
    52   20   48 1
    53   20   49 1
    54   21   50 1
    55   23   51 1
    56   24   52 1
    57   26   53 1
    58   29   54 1
    59   29   55 1
    60   30   56 1
    61   30   57 1
    62   31   58 1
    63   32   59 1
    64   32   60 1
    65   33   61 1
    66   33   62 1
