@<TRIPOS>MOLECULE
4-[4-[[4-chloro-3-(trifluoromethyl)phenyl]carbamoylamino]-3-fluoro-phenoxy]-~{N}-methyl-pyridine-2-carboxamide
48   50    1
SMALL
USER_CHARGES


@<TRIPOS>ATOM
      1 C1          1.5772   -8.2652   -2.4916 C.3       1 REG         0.0764 
      2 N1          2.0412   -6.9178   -2.7318 N.am      1 REG        -0.5711 
      3 C2          1.5852   -5.8335   -1.9992 C.2       1 REG         0.5631 
      4 O1          0.7603   -5.8957   -1.0912 O.2       1 REG        -0.5628 
      5 C3          2.1276   -4.5400   -2.3778 C.ar      1 REG         0.3902 
      6 N2          3.0125   -4.5522   -3.3998 N.ar      1 REG        -0.6316 
      7 C4          3.5262   -3.3557   -3.7633 C.ar      1 REG         0.4220 
      8 C5          3.1984   -2.1540   -3.1564 C.ar      1 REG        -0.2946 
      9 C6          2.2847   -2.1821   -2.1088 C.ar      1 REG         0.1443 
     10 C7          1.7344   -3.3938   -1.7059 C.ar      1 REG        -0.2496 
     11 O2          1.9260   -1.0142   -1.4728 O.3       1 REG        -0.2403 
     12 C8          1.8851   -1.0363   -0.1124 C.ar      1 REG         0.0770 
     13 C9          2.9210   -1.6309    0.6081 C.ar      1 REG        -0.1485 
     14 C10         2.8783   -1.6520    2.0022 C.ar      1 REG         0.1340 
     15 C11         1.7997   -1.0786    2.6757 C.ar      1 REG         0.0433 
     16 C12         0.7638   -0.4841    1.9551 C.ar      1 REG        -0.1506 
     17 C13         0.8066   -0.4630    0.5610 C.ar      1 REG        -0.1179 
     18 N3          1.7547   -1.0986    4.0700 N.am      1 REG        -0.4811 
     19 C14         0.7577   -0.5763    4.9298 C.2       1 REG         0.7925 
     20 O3         -0.2594   -0.0031    4.5527 O.2       1 REG        -0.5832 
     21 N4          1.1077   -0.8125    6.2689 N.am      1 REG        -0.4800 
     22 C15         0.3887   -0.4532    7.4333 C.ar      1 REG         0.0866 
     23 C16         0.8948   -0.7739    8.6930 C.ar      1 REG        -0.1496 
     24 C17         0.1850   -0.4201    9.8405 C.ar      1 REG        -0.1301 
     25 C18        -1.0309    0.2543    9.7283 C.ar      1 REG         0.0294 
     26 C19        -1.5369    0.5749    8.4686 C.ar      1 REG        -0.1027 
     27 C20        -0.8271    0.2211    7.3211 C.ar      1 REG        -0.1218 
     28 Cl1        -1.9353    0.7104   11.1258 Cl        1 REG        -0.0571 
     29 C21         0.7615   -0.7810   11.1715 C.3       1 REG         0.6920 
     30 F1          1.9557   -1.4362   11.0877 F         1 REG        -0.2318 
     31 F2          0.9998    0.2987   11.9712 F         1 REG        -0.2318 
     32 F3         -0.0585   -1.5993   11.8908 F         1 REG        -0.2318 
     33 F4          3.8805   -2.2248    2.6841 F         1 REG        -0.1053 
     34 H1          2.0751   -8.9543   -3.1896 H         1 REG         0.0455 
     35 H2          0.4889   -8.3110   -2.6449 H         1 REG         0.0455 
     36 H3          1.8144   -8.5558   -1.4575 H         1 REG         0.0455 
     37 H4          2.7833   -6.7240   -3.5203 H         1 REG         0.3092 
     38 H5          4.2335   -3.3879   -4.5855 H         1 REG         0.0331 
     39 H6          3.6432   -1.2238   -3.4920 H         1 REG         0.1585 
     40 H7          1.0203   -3.4348   -0.8895 H         1 REG         0.1669 
     41 H8          3.7640   -2.0790    0.0893 H         1 REG         0.1717 
     42 H9         -0.0814   -0.0334    2.4691 H         1 REG         0.1441 
     43 H10        -0.0029    0.0031    0.0057 H         1 REG         0.1607 
     44 H11         2.5706   -1.5670    4.6400 H         1 REG         0.3180 
     45 H12         2.0445   -1.3371    6.5082 H         1 REG         0.3201 
     46 H13         1.8433   -1.2995    8.7811 H         1 REG         0.1536 
     47 H14        -2.4828    1.1001    8.3628 H         1 REG         0.1603 
     48 H15        -1.2310    0.4770    6.3447 H         1 REG         0.1899 
@<TRIPOS>BOND
     1    1    2 1    
     2    1   34 1    
     3    1   35 1    
     4    1   36 1    
     5    2    3 am   BACKBONE|DICT|INTERRES
     6    2   37 1    
     7    3    4 2    
     8    3    5 1    
     9    5   10 ar   
    10    5    6 ar   
    11    6    7 ar   
    12    7    8 ar   
    13    7   38 1    
    14    8    9 ar   
    15    8   39 1    
    16    9   10 ar   
    17    9   11 1    
    18   10   40 1    
    19   11   12 1    
    20   12   17 ar   
    21   12   13 ar   
    22   13   14 ar   
    23   13   41 1    
    24   14   15 ar   
    25   14   33 1    
    26   15   16 ar   
    27   15   18 1    
    28   16   17 ar   
    29   16   42 1    
    30   17   43 1    
    31   18   19 am   BACKBONE|DICT|INTERRES
    32   18   44 1    
    33   19   20 2    
    34   19   21 am   BACKBONE|DICT|INTERRES
    35   21   22 1    
    36   21   45 1    
    37   22   27 ar   
    38   22   23 ar   
    39   23   24 ar   
    40   23   46 1    
    41   24   25 ar   
    42   24   29 1    
    43   25   26 ar   
    44   25   28 1    
    45   26   27 ar   
    46   26   47 1    
    47   27   48 1    
    48   29   30 1    
    49   29   31 1    
    50   29   32 1    
@<TRIPOS>SUBSTRUCTURE
     1 REG         1 GROUP             0       ****    0 ROOT    
@<TRIPOS>MOLECULE
4-[4-[[4-chloro-3-(trifluoromethyl)phenyl]carbamoylamino]-3-fluoro-phenoxy]-~{N}-methyl-pyridine-2-carboxamide
47   49    1
SMALL
USER_CHARGES


@<TRIPOS>ATOM
      1 C1          1.5772   -8.2652   -2.4916 C.3       1 REG         0.0764 
      2 N1          2.0412   -6.9178   -2.7318 N.2       1 REG        -0.5711 
      3 C2          1.5852   -5.8335   -1.9992 C.2       1 REG         0.5631 
      4 O1          0.7603   -5.8957   -1.0912 O.co2     1 REG        -0.5628 
      5 C3          2.1276   -4.5400   -2.3778 C.ar      1 REG         0.3902 
      6 N2          3.0125   -4.5522   -3.3998 N.ar      1 REG        -0.6316 
      7 C4          3.5262   -3.3557   -3.7633 C.ar      1 REG         0.4220 
      8 C5          3.1984   -2.1540   -3.1564 C.ar      1 REG        -0.2946 
      9 C6          2.2847   -2.1821   -2.1088 C.ar      1 REG         0.1443 
     10 C7          1.7344   -3.3938   -1.7059 C.ar      1 REG        -0.2496 
     11 O2          1.9260   -1.0142   -1.4728 O.3       1 REG        -0.2403 
     12 C8          1.8851   -1.0363   -0.1124 C.ar      1 REG         0.0770 
     13 C9          2.9210   -1.6309    0.6081 C.ar      1 REG        -0.1485 
     14 C10         2.8783   -1.6520    2.0022 C.ar      1 REG         0.1340 
     15 C11         1.7997   -1.0786    2.6757 C.ar      1 REG         0.0433 
     16 C12         0.7638   -0.4841    1.9551 C.ar      1 REG        -0.1506 
     17 C13         0.8066   -0.4630    0.5610 C.ar      1 REG        -0.1179 
     18 N3          1.7547   -1.0986    4.0700 N.am      1 REG        -0.4811 
     19 C14         0.7577   -0.5763    4.9298 C.2       1 REG         0.7925 
     20 O3         -0.2594   -0.0031    4.5527 O.2       1 REG        -0.5832 
     21 N4          1.1077   -0.8125    6.2689 N.am      1 REG        -0.4800 
     22 C15         0.3887   -0.4532    7.4333 C.ar      1 REG         0.0866 
     23 C16         0.8948   -0.7739    8.6930 C.ar      1 REG        -0.1496 
     24 C17         0.1850   -0.4201    9.8405 C.ar      1 REG        -0.1301 
     25 C18        -1.0309    0.2543    9.7283 C.ar      1 REG         0.0294 
     26 C19        -1.5369    0.5749    8.4686 C.ar      1 REG        -0.1027 
     27 C20        -0.8271    0.2211    7.3211 C.ar      1 REG        -0.1218 
     28 Cl1        -1.9353    0.7104   11.1258 Cl        1 REG        -0.0571 
     29 C21         0.7615   -0.7810   11.1715 C.3       1 REG         0.6920 
     30 F1          1.9557   -1.4362   11.0877 F         1 REG        -0.2318 
     31 F2          0.9998    0.2987   11.9712 F         1 REG        -0.2318 
     32 F3         -0.0585   -1.5993   11.8908 F         1 REG        -0.2318 
     33 F4          3.8805   -2.2248    2.6841 F         1 REG        -0.1053 
     34 H1          2.0751   -8.9543   -3.1896 H         1 REG         0.0455 
     35 H2          0.4889   -8.3110   -2.6449 H         1 REG         0.0455 
     36 H3          1.8144   -8.5558   -1.4575 H         1 REG         0.0455 
     37 H5          4.2335   -3.3879   -4.5855 H         1 REG         0.0331 
     38 H6          3.6432   -1.2238   -3.4920 H         1 REG         0.1585 
     39 H7          1.0203   -3.4348   -0.8895 H         1 REG         0.1669 
     40 H8          3.7640   -2.0790    0.0893 H         1 REG         0.1717 
     41 H9         -0.0814   -0.0334    2.4691 H         1 REG         0.1441 
     42 H10        -0.0029    0.0031    0.0057 H         1 REG         0.1607 
     43 H11         2.5706   -1.5670    4.6400 H         1 REG         0.3180 
     44 H12         2.0445   -1.3371    6.5082 H         1 REG         0.3201 
     45 H13         1.8433   -1.2995    8.7811 H         1 REG         0.1536 
     46 H14        -2.4828    1.1001    8.3628 H         1 REG         0.1603 
     47 H15        -1.2310    0.4770    6.3447 H         1 REG         0.1899 
@<TRIPOS>BOND
     1    1    2 1    
     2    1   34 1    
     3    1   35 1    
     4    1   36 1    
     5    2    3 2    
     6    3    4 1    
     7    3    5 1    
     8    5   10 ar   
     9    5    6 ar   
    10    6    7 ar   
    11    7    8 ar   
    12    7   37 1    
    13    8    9 ar   
    14    8   38 1    
    15    9   10 ar   
    16    9   11 1    
    17   10   39 1    
    18   11   12 1    
    19   12   17 ar   
    20   12   13 ar   
    21   13   14 ar   
    22   13   40 1    
    23   14   15 ar   
    24   14   33 1    
    25   15   16 ar   
    26   15   18 1    
    27   16   17 ar   
    28   16   41 1    
    29   17   42 1    
    30   18   19 am   BACKBONE|DICT|INTERRES
    31   18   43 1    
    32   19   20 2    
    33   19   21 am   BACKBONE|DICT|INTERRES
    34   21   22 1    
    35   21   44 1    
    36   22   27 ar   
    37   22   23 ar   
    38   23   24 ar   
    39   23   45 1    
    40   24   25 ar   
    41   24   29 1    
    42   25   26 ar   
    43   25   28 1    
    44   26   27 ar   
    45   26   46 1    
    46   27   47 1    
    47   29   30 1    
    48   29   31 1    
    49   29   32 1    
@<TRIPOS>SUBSTRUCTURE
     1 REG         1 GROUP             0       ****    0 ROOT    
