4-[4-[[4-chloro-3-(trifluoromethyl)phenyl]carbamoylamino]-3-fluoro-phenoxy]-~{N}-methyl-pyridine-2-carboxamide
                    3D
 Structure written by MMmdl.
 48 50  0  0  1  0            999 V2000
    1.5772   -8.2652   -2.4916 C   0  0  0  0  0  0
    2.0412   -6.9178   -2.7318 N   0  0  0  0  0  0
    1.5852   -5.8335   -1.9992 C   0  0  0  0  0  0
    0.7603   -5.8957   -1.0912 O   0  0  0  0  0  0
    2.1276   -4.5400   -2.3778 C   0  0  0  0  0  0
    3.0125   -4.5522   -3.3998 N   0  0  0  0  0  0
    3.5262   -3.3557   -3.7633 C   0  0  0  0  0  0
    3.1984   -2.1540   -3.1564 C   0  0  0  0  0  0
    2.2847   -2.1821   -2.1088 C   0  0  0  0  0  0
    1.7344   -3.3938   -1.7059 C   0  0  0  0  0  0
    1.9260   -1.0142   -1.4728 O   0  0  0  0  0  0
    1.8851   -1.0363   -0.1124 C   0  0  0  0  0  0
    2.9210   -1.6309    0.6081 C   0  0  0  0  0  0
    2.8783   -1.6520    2.0022 C   0  0  0  0  0  0
    1.7997   -1.0786    2.6757 C   0  0  0  0  0  0
    0.7638   -0.4841    1.9551 C   0  0  0  0  0  0
    0.8066   -0.4630    0.5610 C   0  0  0  0  0  0
    1.7547   -1.0986    4.0700 N   0  0  0  0  0  0
    0.7577   -0.5763    4.9298 C   0  0  0  0  0  0
   -0.2594   -0.0031    4.5527 O   0  0  0  0  0  0
    1.1077   -0.8125    6.2689 N   0  0  0  0  0  0
    0.3887   -0.4532    7.4333 C   0  0  0  0  0  0
    0.8948   -0.7739    8.6930 C   0  0  0  0  0  0
    0.1850   -0.4201    9.8405 C   0  0  0  0  0  0
   -1.0309    0.2543    9.7283 C   0  0  0  0  0  0
   -1.5369    0.5749    8.4686 C   0  0  0  0  0  0
   -0.8271    0.2211    7.3211 C   0  0  0  0  0  0
   -1.9353    0.7104   11.1258 Cl  0  0  0  0  0  0
    0.7615   -0.7810   11.1715 C   0  0  0  0  0  0
    1.9557   -1.4362   11.0877 F   0  0  0  0  0  0
    0.9998    0.2987   11.9712 F   0  0  0  0  0  0
   -0.0585   -1.5993   11.8908 F   0  0  0  0  0  0
    3.8805   -2.2248    2.6841 F   0  0  0  0  0  0
    2.0751   -8.9543   -3.1896 H   0  0  0  0  0  0
    0.4889   -8.3110   -2.6449 H   0  0  0  0  0  0
    1.8144   -8.5558   -1.4575 H   0  0  0  0  0  0
    2.7833   -6.7240   -3.5203 H   0  0  0  0  0  0
    4.2335   -3.3879   -4.5855 H   0  0  0  0  0  0
    3.6432   -1.2238   -3.4920 H   0  0  0  0  0  0
    1.0203   -3.4348   -0.8895 H   0  0  0  0  0  0
    3.7640   -2.0790    0.0893 H   0  0  0  0  0  0
   -0.0814   -0.0334    2.4691 H   0  0  0  0  0  0
   -0.0029    0.0031    0.0057 H   0  0  0  0  0  0
    2.5706   -1.5670    4.6400 H   0  0  0  0  0  0
    2.0445   -1.3371    6.5082 H   0  0  0  0  0  0
    1.8433   -1.2995    8.7811 H   0  0  0  0  0  0
   -2.4828    1.1001    8.3628 H   0  0  0  0  0  0
   -1.2310    0.4770    6.3447 H   0  0  0  0  0  0
  1  2  1  0  0  0
  1 34  1  0  0  0
  1 35  1  0  0  0
  1 36  1  0  0  0
  2  3  1  0  0  0
  2 37  1  0  0  0
  3  4  2  0  0  0
  3  5  1  0  0  0
  5 10  2  0  0  0
  5  6  1  0  0  0
  6  7  2  0  0  0
  7  8  1  0  0  0
  7 38  1  0  0  0
  8  9  2  0  0  0
  8 39  1  0  0  0
  9 10  1  0  0  0
  9 11  1  0  0  0
 10 40  1  0  0  0
 11 12  1  0  0  0
 12 17  2  0  0  0
 12 13  1  0  0  0
 13 14  2  0  0  0
 13 41  1  0  0  0
 14 15  1  0  0  0
 14 33  1  0  0  0
 15 16  2  0  0  0
 15 18  1  0  0  0
 16 17  1  0  0  0
 16 42  1  0  0  0
 17 43  1  0  0  0
 18 19  1  0  0  0
 18 44  1  0  0  0
 19 20  2  0  0  0
 19 21  1  0  0  0
 21 22  1  0  0  0
 21 45  1  0  0  0
 22 27  2  0  0  0
 22 23  1  0  0  0
 23 24  2  0  0  0
 23 46  1  0  0  0
 24 25  1  0  0  0
 24 29  1  0  0  0
 25 26  2  0  0  0
 25 28  1  0  0  0
 26 27  1  0  0  0
 26 47  1  0  0  0
 27 48  1  0  0  0
 29 30  1  0  0  0
 29 31  1  0  0  0
 29 32  1  0  0  0
M  END
> <s_m_source_file>
/Users/andrea/Development/mcce-charges/epik_inhibitors/output/Regorafenib/Regorafenib-input.mol2

> <i_m_source_file_index>
1

> <r_lp_tautomer_probability>
1

> <r_epik_Ionization_Penalty>
  0.0001

> <r_epik_Ionization_Penalty_Charging>
  0.0000

> <r_epik_Ionization_Penalty_Neutral>
  0.0001

> <r_epik_State_Penalty>
  0.0001

> <i_epik_Tot_Q>
0

$$$$
4-[4-[[4-chloro-3-(trifluoromethyl)phenyl]carbamoylamino]-3-fluoro-phenoxy]-~{N}-methyl-pyridine-2-carboxamide
                    3D
 Structure written by MMmdl.
 47 49  0  0  1  0            999 V2000
    1.5772   -8.2652   -2.4916 C   0  0  0  0  0  0
    2.0412   -6.9178   -2.7318 N   0  0  0  0  0  0
    1.5852   -5.8335   -1.9992 C   0  0  0  0  0  0
    0.7603   -5.8957   -1.0912 O   0  5  0  0  0  0
    2.1276   -4.5400   -2.3778 C   0  0  0  0  0  0
    3.0125   -4.5522   -3.3998 N   0  0  0  0  0  0
    3.5262   -3.3557   -3.7633 C   0  0  0  0  0  0
    3.1984   -2.1540   -3.1564 C   0  0  0  0  0  0
    2.2847   -2.1821   -2.1088 C   0  0  0  0  0  0
    1.7344   -3.3938   -1.7059 C   0  0  0  0  0  0
    1.9260   -1.0142   -1.4728 O   0  0  0  0  0  0
    1.8851   -1.0363   -0.1124 C   0  0  0  0  0  0
    2.9210   -1.6309    0.6081 C   0  0  0  0  0  0
    2.8783   -1.6520    2.0022 C   0  0  0  0  0  0
    1.7997   -1.0786    2.6757 C   0  0  0  0  0  0
    0.7638   -0.4841    1.9551 C   0  0  0  0  0  0
    0.8066   -0.4630    0.5610 C   0  0  0  0  0  0
    1.7547   -1.0986    4.0700 N   0  0  0  0  0  0
    0.7577   -0.5763    4.9298 C   0  0  0  0  0  0
   -0.2594   -0.0031    4.5527 O   0  0  0  0  0  0
    1.1077   -0.8125    6.2689 N   0  0  0  0  0  0
    0.3887   -0.4532    7.4333 C   0  0  0  0  0  0
    0.8948   -0.7739    8.6930 C   0  0  0  0  0  0
    0.1850   -0.4201    9.8405 C   0  0  0  0  0  0
   -1.0309    0.2543    9.7283 C   0  0  0  0  0  0
   -1.5369    0.5749    8.4686 C   0  0  0  0  0  0
   -0.8271    0.2211    7.3211 C   0  0  0  0  0  0
   -1.9353    0.7104   11.1258 Cl  0  0  0  0  0  0
    0.7615   -0.7810   11.1715 C   0  0  0  0  0  0
    1.9557   -1.4362   11.0877 F   0  0  0  0  0  0
    0.9998    0.2987   11.9712 F   0  0  0  0  0  0
   -0.0585   -1.5993   11.8908 F   0  0  0  0  0  0
    3.8805   -2.2248    2.6841 F   0  0  0  0  0  0
    2.0751   -8.9543   -3.1896 H   0  0  0  0  0  0
    0.4889   -8.3110   -2.6449 H   0  0  0  0  0  0
    1.8144   -8.5558   -1.4575 H   0  0  0  0  0  0
    4.2335   -3.3879   -4.5855 H   0  0  0  0  0  0
    3.6432   -1.2238   -3.4920 H   0  0  0  0  0  0
    1.0203   -3.4348   -0.8895 H   0  0  0  0  0  0
    3.6944   -2.0418    0.1253 H   0  0  0  0  0  0
   -0.0091   -0.0724    2.4379 H   0  0  0  0  0  0
    0.0647   -0.0356    0.0444 H   0  0  0  0  0  0
    2.5706   -1.5670    4.6400 H   0  0  0  0  0  0
    2.0445   -1.3371    6.5082 H   0  0  0  0  0  0
    1.8433   -1.2995    8.7811 H   0  0  0  0  0  0
   -2.4828    1.1001    8.3628 H   0  0  0  0  0  0
   -1.2310    0.4770    6.3447 H   0  0  0  0  0  0
  1  2  1  0  0  0
  1 34  1  0  0  0
  1 35  1  0  0  0
  1 36  1  0  0  0
  2  3  2  0  0  0
  3  4  1  0  0  0
  3  5  1  0  0  0
  5 10  2  0  0  0
  5  6  1  0  0  0
  6  7  2  0  0  0
  7  8  1  0  0  0
  7 37  1  0  0  0
  8  9  2  0  0  0
  8 38  1  0  0  0
  9 10  1  0  0  0
  9 11  1  0  0  0
 10 39  1  0  0  0
 11 12  1  0  0  0
 12 17  2  0  0  0
 12 13  1  0  0  0
 13 14  2  0  0  0
 13 40  1  0  0  0
 14 15  1  0  0  0
 14 33  1  0  0  0
 15 16  2  0  0  0
 15 18  1  0  0  0
 16 17  1  0  0  0
 16 41  1  0  0  0
 17 42  1  0  0  0
 18 19  1  0  0  0
 18 43  1  0  0  0
 19 20  2  0  0  0
 19 21  1  0  0  0
 21 22  1  0  0  0
 21 44  1  0  0  0
 22 27  2  0  0  0
 22 23  1  0  0  0
 23 24  2  0  0  0
 23 45  1  0  0  0
 24 25  1  0  0  0
 24 29  1  0  0  0
 25 26  2  0  0  0
 25 28  1  0  0  0
 26 27  1  0  0  0
 26 46  1  0  0  0
 27 47  1  0  0  0
 29 30  1  0  0  0
 29 31  1  0  0  0
 29 32  1  0  0  0
M  CHG  1   4  -1
M  END
> <s_m_source_file>
/Users/andrea/Development/mcce-charges/epik_inhibitors/output/Regorafenib/Regorafenib-input.mol2

> <i_m_source_file_index>
1

> <r_lp_tautomer_probability>
1

> <r_epik_Ionization_Penalty>
  5.4624

> <r_epik_Ionization_Penalty_Charging>
  5.4592

> <r_epik_Ionization_Penalty_Neutral>
  0.0032

> <r_epik_State_Penalty>
  5.4432

> <i_epik_Tot_Q>
-1

$$$$
4-[4-[[4-chloro-3-(trifluoromethyl)phenyl]carbamoylamino]-3-fluoro-phenoxy]-~{N}-methyl-pyridine-2-carboxamide
                    3D
 Structure written by MMmdl.
 47 49  0  0  1  0            999 V2000
    1.5772   -8.2652   -2.4916 C   0  0  0  0  0  0
    2.0412   -6.9178   -2.7318 N   0  0  0  0  0  0
    1.5852   -5.8335   -1.9992 C   0  0  0  0  0  0
    0.7603   -5.8957   -1.0912 O   0  0  0  0  0  0
    2.1276   -4.5400   -2.3778 C   0  0  0  0  0  0
    3.0125   -4.5522   -3.3998 N   0  0  0  0  0  0
    3.5262   -3.3557   -3.7633 C   0  0  0  0  0  0
    3.1984   -2.1540   -3.1564 C   0  0  0  0  0  0
    2.2847   -2.1821   -2.1088 C   0  0  0  0  0  0
    1.7344   -3.3938   -1.7059 C   0  0  0  0  0  0
    1.9260   -1.0142   -1.4728 O   0  0  0  0  0  0
    1.8851   -1.0363   -0.1124 C   0  0  0  0  0  0
    2.9210   -1.6309    0.6081 C   0  0  0  0  0  0
    2.8783   -1.6520    2.0022 C   0  0  0  0  0  0
    1.7997   -1.0786    2.6757 C   0  0  0  0  0  0
    0.7638   -0.4841    1.9551 C   0  0  0  0  0  0
    0.8066   -0.4630    0.5610 C   0  0  0  0  0  0
    1.7547   -1.0986    4.0700 N   0  0  0  0  0  0
    0.7577   -0.5763    4.9298 C   0  0  0  0  0  0
   -0.2594   -0.0031    4.5527 O   0  5  0  0  0  0
    1.1077   -0.8125    6.2689 N   0  0  0  0  0  0
    0.3887   -0.4532    7.4333 C   0  0  0  0  0  0
    0.8948   -0.7739    8.6930 C   0  0  0  0  0  0
    0.1850   -0.4201    9.8405 C   0  0  0  0  0  0
   -1.0309    0.2543    9.7283 C   0  0  0  0  0  0
   -1.5369    0.5749    8.4686 C   0  0  0  0  0  0
   -0.8271    0.2211    7.3211 C   0  0  0  0  0  0
   -1.9353    0.7104   11.1258 Cl  0  0  0  0  0  0
    0.7615   -0.7810   11.1715 C   0  0  0  0  0  0
    1.9557   -1.4362   11.0877 F   0  0  0  0  0  0
    0.9998    0.2987   11.9712 F   0  0  0  0  0  0
   -0.0585   -1.5993   11.8908 F   0  0  0  0  0  0
    3.8805   -2.2248    2.6841 F   0  0  0  0  0  0
    2.0751   -8.9543   -3.1896 H   0  0  0  0  0  0
    0.4889   -8.3110   -2.6449 H   0  0  0  0  0  0
    1.8144   -8.5558   -1.4575 H   0  0  0  0  0  0
    2.7833   -6.7240   -3.5203 H   0  0  0  0  0  0
    4.2335   -3.3879   -4.5855 H   0  0  0  0  0  0
    3.6432   -1.2238   -3.4920 H   0  0  0  0  0  0
    1.0203   -3.4348   -0.8895 H   0  0  0  0  0  0
    3.7640   -2.0790    0.0893 H   0  0  0  0  0  0
   -0.0814   -0.0334    2.4691 H   0  0  0  0  0  0
   -0.0029    0.0031    0.0057 H   0  0  0  0  0  0
    2.5706   -1.5670    4.6400 H   0  0  0  0  0  0
    1.8433   -1.2995    8.7811 H   0  0  0  0  0  0
   -2.4828    1.1001    8.3628 H   0  0  0  0  0  0
   -1.2310    0.4770    6.3447 H   0  0  0  0  0  0
  1  2  1  0  0  0
  1 34  1  0  0  0
  1 35  1  0  0  0
  1 36  1  0  0  0
  2  3  1  0  0  0
  2 37  1  0  0  0
  3  4  2  0  0  0
  3  5  1  0  0  0
  5 10  2  0  0  0
  5  6  1  0  0  0
  6  7  2  0  0  0
  7  8  1  0  0  0
  7 38  1  0  0  0
  8  9  2  0  0  0
  8 39  1  0  0  0
  9 10  1  0  0  0
  9 11  1  0  0  0
 10 40  1  0  0  0
 11 12  1  0  0  0
 12 17  2  0  0  0
 12 13  1  0  0  0
 13 14  2  0  0  0
 13 41  1  0  0  0
 14 15  1  0  0  0
 14 33  1  0  0  0
 15 16  2  0  0  0
 15 18  1  0  0  0
 16 17  1  0  0  0
 16 42  1  0  0  0
 17 43  1  0  0  0
 18 19  1  0  0  0
 18 44  1  0  0  0
 19 20  1  0  0  0
 19 21  2  0  0  0
 21 22  1  0  0  0
 22 27  2  0  0  0
 22 23  1  0  0  0
 23 24  2  0  0  0
 23 45  1  0  0  0
 24 25  1  0  0  0
 24 29  1  0  0  0
 25 26  2  0  0  0
 25 28  1  0  0  0
 26 27  1  0  0  0
 26 46  1  0  0  0
 27 47  1  0  0  0
 29 30  1  0  0  0
 29 31  1  0  0  0
 29 32  1  0  0  0
M  CHG  1  20  -1
M  END
> <s_m_source_file>
/Users/andrea/Development/mcce-charges/epik_inhibitors/output/Regorafenib/Regorafenib-input.mol2

> <i_m_source_file_index>
1

> <r_epik_Ionization_Penalty>
  6.1124

> <r_epik_Ionization_Penalty_Charging>
  6.1122

> <r_epik_Ionization_Penalty_Neutral>
  0.0001

> <r_epik_State_Penalty>
  6.0225

> <i_epik_Tot_Q>
-1

$$$$
4-[4-[[4-chloro-3-(trifluoromethyl)phenyl]carbamoylamino]-3-fluoro-phenoxy]-~{N}-methyl-pyridine-2-carboxamide
                    3D
 Structure written by MMmdl.
 47 49  0  0  1  0            999 V2000
    1.5772   -8.2652   -2.4916 C   0  0  0  0  0  0
    2.0412   -6.9178   -2.7318 N   0  0  0  0  0  0
    1.5852   -5.8335   -1.9992 C   0  0  0  0  0  0
    0.7603   -5.8957   -1.0912 O   0  0  0  0  0  0
    2.1276   -4.5400   -2.3778 C   0  0  0  0  0  0
    3.0125   -4.5522   -3.3998 N   0  0  0  0  0  0
    3.5262   -3.3557   -3.7633 C   0  0  0  0  0  0
    3.1984   -2.1540   -3.1564 C   0  0  0  0  0  0
    2.2847   -2.1821   -2.1088 C   0  0  0  0  0  0
    1.7344   -3.3938   -1.7059 C   0  0  0  0  0  0
    1.9260   -1.0142   -1.4728 O   0  0  0  0  0  0
    1.8851   -1.0363   -0.1124 C   0  0  0  0  0  0
    2.9210   -1.6309    0.6081 C   0  0  0  0  0  0
    2.8783   -1.6520    2.0022 C   0  0  0  0  0  0
    1.7997   -1.0786    2.6757 C   0  0  0  0  0  0
    0.7638   -0.4841    1.9551 C   0  0  0  0  0  0
    0.8066   -0.4630    0.5610 C   0  0  0  0  0  0
    1.7547   -1.0986    4.0700 N   0  0  0  0  0  0
    0.7577   -0.5763    4.9298 C   0  0  0  0  0  0
   -0.2594   -0.0031    4.5527 O   0  5  0  0  0  0
    1.1077   -0.8125    6.2689 N   0  0  0  0  0  0
    0.3887   -0.4532    7.4333 C   0  0  0  0  0  0
    0.8948   -0.7739    8.6930 C   0  0  0  0  0  0
    0.1850   -0.4201    9.8405 C   0  0  0  0  0  0
   -1.0309    0.2543    9.7283 C   0  0  0  0  0  0
   -1.5369    0.5749    8.4686 C   0  0  0  0  0  0
   -0.8271    0.2211    7.3211 C   0  0  0  0  0  0
   -1.9353    0.7104   11.1258 Cl  0  0  0  0  0  0
    0.7615   -0.7810   11.1715 C   0  0  0  0  0  0
    1.9557   -1.4362   11.0877 F   0  0  0  0  0  0
    0.9998    0.2987   11.9712 F   0  0  0  0  0  0
   -0.0585   -1.5993   11.8908 F   0  0  0  0  0  0
    3.8805   -2.2248    2.6841 F   0  0  0  0  0  0
    2.0751   -8.9543   -3.1896 H   0  0  0  0  0  0
    0.4889   -8.3110   -2.6449 H   0  0  0  0  0  0
    1.8144   -8.5558   -1.4575 H   0  0  0  0  0  0
    2.7833   -6.7240   -3.5203 H   0  0  0  0  0  0
    4.2335   -3.3879   -4.5855 H   0  0  0  0  0  0
    3.6432   -1.2238   -3.4920 H   0  0  0  0  0  0
    1.0203   -3.4348   -0.8895 H   0  0  0  0  0  0
    3.7640   -2.0790    0.0893 H   0  0  0  0  0  0
   -0.0814   -0.0334    2.4691 H   0  0  0  0  0  0
   -0.0029    0.0031    0.0057 H   0  0  0  0  0  0
    2.0445   -1.3371    6.5082 H   0  0  0  0  0  0
    1.8433   -1.2995    8.7811 H   0  0  0  0  0  0
   -2.4828    1.1001    8.3628 H   0  0  0  0  0  0
   -1.2310    0.4770    6.3447 H   0  0  0  0  0  0
  1  2  1  0  0  0
  1 34  1  0  0  0
  1 35  1  0  0  0
  1 36  1  0  0  0
  2  3  1  0  0  0
  2 37  1  0  0  0
  3  4  2  0  0  0
  3  5  1  0  0  0
  5 10  2  0  0  0
  5  6  1  0  0  0
  6  7  2  0  0  0
  7  8  1  0  0  0
  7 38  1  0  0  0
  8  9  2  0  0  0
  8 39  1  0  0  0
  9 10  1  0  0  0
  9 11  1  0  0  0
 10 40  1  0  0  0
 11 12  1  0  0  0
 12 17  2  0  0  0
 12 13  1  0  0  0
 13 14  2  0  0  0
 13 41  1  0  0  0
 14 15  1  0  0  0
 14 33  1  0  0  0
 15 16  2  0  0  0
 15 18  1  0  0  0
 16 17  1  0  0  0
 16 42  1  0  0  0
 17 43  1  0  0  0
 18 19  2  0  0  0
 19 20  1  0  0  0
 19 21  1  0  0  0
 21 22  1  0  0  0
 21 44  1  0  0  0
 22 27  2  0  0  0
 22 23  1  0  0  0
 23 24  2  0  0  0
 23 45  1  0  0  0
 24 25  1  0  0  0
 24 29  1  0  0  0
 25 26  2  0  0  0
 25 28  1  0  0  0
 26 27  1  0  0  0
 26 46  1  0  0  0
 27 47  1  0  0  0
 29 30  1  0  0  0
 29 31  1  0  0  0
 29 32  1  0  0  0
M  CHG  1  20  -1
M  END
> <s_m_source_file>
/Users/andrea/Development/mcce-charges/epik_inhibitors/output/Regorafenib/Regorafenib-input.mol2

> <i_m_source_file_index>
1

> <r_epik_Ionization_Penalty>
  6.1293

> <r_epik_Ionization_Penalty_Charging>
  6.1292

> <r_epik_Ionization_Penalty_Neutral>
  0.0001

> <r_epik_State_Penalty>
  6.1065

> <i_epik_Tot_Q>
-1

$$$$
4-[4-[[4-chloro-3-(trifluoromethyl)phenyl]carbamoylamino]-3-fluoro-phenoxy]-~{N}-methyl-pyridine-2-carboxamide
                    3D
 Structure written by MMmdl.
 48 50  0  0  1  0            999 V2000
    1.5772   -8.2652   -2.4916 C   0  0  0  0  0  0
    2.0412   -6.9178   -2.7318 N   0  0  0  0  0  0
    1.5852   -5.8335   -1.9992 C   0  0  0  0  0  0
    0.7603   -5.8957   -1.0912 O   0  5  0  0  0  0
    2.1276   -4.5400   -2.3778 C   0  0  0  0  0  0
    3.0125   -4.5522   -3.3998 N   0  3  0  0  0  0
    3.5262   -3.3557   -3.7633 C   0  0  0  0  0  0
    3.1984   -2.1540   -3.1564 C   0  0  0  0  0  0
    2.2847   -2.1821   -2.1088 C   0  0  0  0  0  0
    1.7344   -3.3938   -1.7059 C   0  0  0  0  0  0
    1.9260   -1.0142   -1.4728 O   0  0  0  0  0  0
    1.8851   -1.0363   -0.1124 C   0  0  0  0  0  0
    2.9210   -1.6309    0.6081 C   0  0  0  0  0  0
    2.8783   -1.6520    2.0022 C   0  0  0  0  0  0
    1.7997   -1.0786    2.6757 C   0  0  0  0  0  0
    0.7638   -0.4841    1.9551 C   0  0  0  0  0  0
    0.8066   -0.4630    0.5610 C   0  0  0  0  0  0
    1.7547   -1.0986    4.0700 N   0  0  0  0  0  0
    0.7577   -0.5763    4.9298 C   0  0  0  0  0  0
   -0.2594   -0.0031    4.5527 O   0  0  0  0  0  0
    1.1077   -0.8125    6.2689 N   0  0  0  0  0  0
    0.3887   -0.4532    7.4333 C   0  0  0  0  0  0
    0.8948   -0.7739    8.6930 C   0  0  0  0  0  0
    0.1850   -0.4201    9.8405 C   0  0  0  0  0  0
   -1.0309    0.2543    9.7283 C   0  0  0  0  0  0
   -1.5369    0.5749    8.4686 C   0  0  0  0  0  0
   -0.8271    0.2211    7.3211 C   0  0  0  0  0  0
   -1.9353    0.7104   11.1258 Cl  0  0  0  0  0  0
    0.7615   -0.7810   11.1715 C   0  0  0  0  0  0
    1.9557   -1.4362   11.0877 F   0  0  0  0  0  0
    0.9998    0.2987   11.9712 F   0  0  0  0  0  0
   -0.0585   -1.5993   11.8908 F   0  0  0  0  0  0
    3.8805   -2.2248    2.6841 F   0  0  0  0  0  0
    2.0751   -8.9543   -3.1896 H   0  0  0  0  0  0
    0.4889   -8.3110   -2.6449 H   0  0  0  0  0  0
    1.8144   -8.5558   -1.4575 H   0  0  0  0  0  0
    4.2335   -3.3879   -4.5855 H   0  0  0  0  0  0
    3.6432   -1.2238   -3.4920 H   0  0  0  0  0  0
    1.0203   -3.4348   -0.8895 H   0  0  0  0  0  0
    3.6944   -2.0418    0.1253 H   0  0  0  0  0  0
   -0.0091   -0.0724    2.4379 H   0  0  0  0  0  0
    0.0647   -0.0356    0.0444 H   0  0  0  0  0  0
    2.5706   -1.5670    4.6400 H   0  0  0  0  0  0
    2.0445   -1.3371    6.5082 H   0  0  0  0  0  0
    1.8433   -1.2995    8.7811 H   0  0  0  0  0  0
   -2.4828    1.1001    8.3628 H   0  0  0  0  0  0
   -1.2310    0.4770    6.3447 H   0  0  0  0  0  0
    3.2775   -5.5024   -3.8866 H   0  0  0  0  0  0
  1  2  1  0  0  0
  1 34  1  0  0  0
  1 35  1  0  0  0
  1 36  1  0  0  0
  2  3  2  0  0  0
  3  4  1  0  0  0
  3  5  1  0  0  0
  5 10  2  0  0  0
  5  6  1  0  0  0
  6  7  2  0  0  0
  6 48  1  0  0  0
  7  8  1  0  0  0
  7 37  1  0  0  0
  8  9  2  0  0  0
  8 38  1  0  0  0
  9 10  1  0  0  0
  9 11  1  0  0  0
 10 39  1  0  0  0
 11 12  1  0  0  0
 12 17  2  0  0  0
 12 13  1  0  0  0
 13 14  2  0  0  0
 13 40  1  0  0  0
 14 15  1  0  0  0
 14 33  1  0  0  0
 15 16  2  0  0  0
 15 18  1  0  0  0
 16 17  1  0  0  0
 16 41  1  0  0  0
 17 42  1  0  0  0
 18 19  1  0  0  0
 18 43  1  0  0  0
 19 20  2  0  0  0
 19 21  1  0  0  0
 21 22  1  0  0  0
 21 44  1  0  0  0
 22 27  2  0  0  0
 22 23  1  0  0  0
 23 24  2  0  0  0
 23 45  1  0  0  0
 24 25  1  0  0  0
 24 29  1  0  0  0
 25 26  2  0  0  0
 25 28  1  0  0  0
 26 27  1  0  0  0
 26 46  1  0  0  0
 27 47  1  0  0  0
 29 30  1  0  0  0
 29 31  1  0  0  0
 29 32  1  0  0  0
M  CHG  2   4  -1   6   1
M  END
> <s_m_source_file>
/Users/andrea/Development/mcce-charges/epik_inhibitors/output/Regorafenib/Regorafenib-input.mol2

> <i_m_source_file_index>
1

> <r_epik_Ionization_Penalty>
  3.4187

> <r_epik_Ionization_Penalty_Charging>
  3.4186

> <r_epik_Ionization_Penalty_Neutral>
  0.0000

> <r_epik_State_Penalty>
  8.4584

> <i_epik_Tot_Q>
0

$$$$
4-[4-[[4-chloro-3-(trifluoromethyl)phenyl]carbamoylamino]-3-fluoro-phenoxy]-~{N}-methyl-pyridine-2-carboxamide
                    3D
 Structure written by MMmdl.
 48 50  0  0  1  0            999 V2000
    1.5772   -8.2652   -2.4916 C   0  0  0  0  0  0
    2.0412   -6.9178   -2.7318 N   0  0  0  0  0  0
    1.5852   -5.8335   -1.9992 C   0  0  0  0  0  0
    0.7603   -5.8957   -1.0912 O   0  0  0  0  0  0
    2.1276   -4.5400   -2.3778 C   0  0  0  0  0  0
    3.0125   -4.5522   -3.3998 N   0  0  0  0  0  0
    3.5262   -3.3557   -3.7633 C   0  0  0  0  0  0
    3.1984   -2.1540   -3.1564 C   0  0  0  0  0  0
    2.2847   -2.1821   -2.1088 C   0  0  0  0  0  0
    1.7344   -3.3938   -1.7059 C   0  0  0  0  0  0
    1.9260   -1.0142   -1.4728 O   0  0  0  0  0  0
    1.8851   -1.0363   -0.1124 C   0  0  0  0  0  0
    2.9210   -1.6309    0.6081 C   0  0  0  0  0  0
    2.8783   -1.6520    2.0022 C   0  0  0  0  0  0
    1.7997   -1.0786    2.6757 C   0  0  0  0  0  0
    0.7638   -0.4841    1.9551 C   0  0  0  0  0  0
    0.8066   -0.4630    0.5610 C   0  0  0  0  0  0
    1.7547   -1.0986    4.0700 N   0  0  0  0  0  0
    0.7577   -0.5763    4.9298 C   0  0  0  0  0  0
   -0.2594   -0.0031    4.5527 O   0  0  0  0  0  0
    1.1077   -0.8125    6.2689 N   0  0  0  0  0  0
    0.3887   -0.4532    7.4333 C   0  0  0  0  0  0
    0.8948   -0.7739    8.6930 C   0  0  0  0  0  0
    0.1850   -0.4201    9.8405 C   0  0  0  0  0  0
   -1.0309    0.2543    9.7283 C   0  0  0  0  0  0
   -1.5369    0.5749    8.4686 C   0  0  0  0  0  0
   -0.8271    0.2211    7.3211 C   0  0  0  0  0  0
   -1.9353    0.7104   11.1258 Cl  0  0  0  0  0  0
    0.7615   -0.7810   11.1715 C   0  0  0  0  0  0
    1.9557   -1.4362   11.0877 F   0  0  0  0  0  0
    0.9998    0.2987   11.9712 F   0  0  0  0  0  0
   -0.0585   -1.5993   11.8908 F   0  0  0  0  0  0
    3.8805   -2.2248    2.6841 F   0  0  0  0  0  0
    2.0751   -8.9543   -3.1896 H   0  0  0  0  0  0
    0.4889   -8.3110   -2.6449 H   0  0  0  0  0  0
    1.8144   -8.5558   -1.4575 H   0  0  0  0  0  0
    2.7833   -6.7240   -3.5203 H   0  0  0  0  0  0
    4.2335   -3.3879   -4.5855 H   0  0  0  0  0  0
    3.6432   -1.2238   -3.4920 H   0  0  0  0  0  0
    1.0203   -3.4348   -0.8895 H   0  0  0  0  0  0
    3.7640   -2.0790    0.0893 H   0  0  0  0  0  0
   -0.0814   -0.0334    2.4691 H   0  0  0  0  0  0
   -0.0029    0.0031    0.0057 H   0  0  0  0  0  0
    2.0445   -1.3371    6.5082 H   0  0  0  0  0  0
    1.8433   -1.2995    8.7811 H   0  0  0  0  0  0
   -2.4828    1.1001    8.3628 H   0  0  0  0  0  0
   -1.2310    0.4770    6.3447 H   0  0  0  0  0  0
   -0.9842    0.3730    5.2898 H   0  0  0  0  0  0
  1  2  1  0  0  0
  1 34  1  0  0  0
  1 35  1  0  0  0
  1 36  1  0  0  0
  2  3  1  0  0  0
  2 37  1  0  0  0
  3  4  2  0  0  0
  3  5  1  0  0  0
  5 10  2  0  0  0
  5  6  1  0  0  0
  6  7  2  0  0  0
  7  8  1  0  0  0
  7 38  1  0  0  0
  8  9  2  0  0  0
  8 39  1  0  0  0
  9 10  1  0  0  0
  9 11  1  0  0  0
 10 40  1  0  0  0
 11 12  1  0  0  0
 12 17  2  0  0  0
 12 13  1  0  0  0
 13 14  2  0  0  0
 13 41  1  0  0  0
 14 15  1  0  0  0
 14 33  1  0  0  0
 15 16  2  0  0  0
 15 18  1  0  0  0
 16 17  1  0  0  0
 16 42  1  0  0  0
 17 43  1  0  0  0
 18 19  2  0  0  0
 19 20  1  0  0  0
 19 21  1  0  0  0
 20 48  1  0  0  0
 21 22  1  0  0  0
 21 44  1  0  0  0
 22 27  2  0  0  0
 22 23  1  0  0  0
 23 24  2  0  0  0
 23 45  1  0  0  0
 24 25  1  0  0  0
 24 29  1  0  0  0
 25 26  2  0  0  0
 25 28  1  0  0  0
 26 27  1  0  0  0
 26 46  1  0  0  0
 27 47  1  0  0  0
 29 30  1  0  0  0
 29 31  1  0  0  0
 29 32  1  0  0  0
M  END
> <s_m_source_file>
/Users/andrea/Development/mcce-charges/epik_inhibitors/output/Regorafenib/Regorafenib-input.mol2

> <i_m_source_file_index>
1

> <r_epik_Ionization_Penalty>
  3.7827

> <r_epik_Ionization_Penalty_Charging>
  0.0000

> <r_epik_Ionization_Penalty_Neutral>
  3.7827

> <r_epik_State_Penalty>
 10.2804

> <i_epik_Tot_Q>
0

> <s_epik_Chemistry_Notes>
This compound has an imine and may undergo hydrolysis.

$$$$
4-[4-[[4-chloro-3-(trifluoromethyl)phenyl]carbamoylamino]-3-fluoro-phenoxy]-~{N}-methyl-pyridine-2-carboxamide
                    3D
 Structure written by MMmdl.
 48 50  0  0  1  0            999 V2000
    1.5772   -8.2652   -2.4916 C   0  0  0  0  0  0
    2.0412   -6.9178   -2.7318 N   0  0  0  0  0  0
    1.5852   -5.8335   -1.9992 C   0  0  0  0  0  0
    0.7603   -5.8957   -1.0912 O   0  0  0  0  0  0
    2.1276   -4.5400   -2.3778 C   0  0  0  0  0  0
    3.0125   -4.5522   -3.3998 N   0  0  0  0  0  0
    3.5262   -3.3557   -3.7633 C   0  0  0  0  0  0
    3.1984   -2.1540   -3.1564 C   0  0  0  0  0  0
    2.2847   -2.1821   -2.1088 C   0  0  0  0  0  0
    1.7344   -3.3938   -1.7059 C   0  0  0  0  0  0
    1.9260   -1.0142   -1.4728 O   0  0  0  0  0  0
    1.8851   -1.0363   -0.1124 C   0  0  0  0  0  0
    2.9210   -1.6309    0.6081 C   0  0  0  0  0  0
    2.8783   -1.6520    2.0022 C   0  0  0  0  0  0
    1.7997   -1.0786    2.6757 C   0  0  0  0  0  0
    0.7638   -0.4841    1.9551 C   0  0  0  0  0  0
    0.8066   -0.4630    0.5610 C   0  0  0  0  0  0
    1.7547   -1.0986    4.0700 N   0  0  0  0  0  0
    0.7577   -0.5763    4.9298 C   0  0  0  0  0  0
   -0.2594   -0.0031    4.5527 O   0  0  0  0  0  0
    1.1077   -0.8125    6.2689 N   0  0  0  0  0  0
    0.3887   -0.4532    7.4333 C   0  0  0  0  0  0
    0.8948   -0.7739    8.6930 C   0  0  0  0  0  0
    0.1850   -0.4201    9.8405 C   0  0  0  0  0  0
   -1.0309    0.2543    9.7283 C   0  0  0  0  0  0
   -1.5369    0.5749    8.4686 C   0  0  0  0  0  0
   -0.8271    0.2211    7.3211 C   0  0  0  0  0  0
   -1.9353    0.7104   11.1258 Cl  0  0  0  0  0  0
    0.7615   -0.7810   11.1715 C   0  0  0  0  0  0
    1.9557   -1.4362   11.0877 F   0  0  0  0  0  0
    0.9998    0.2987   11.9712 F   0  0  0  0  0  0
   -0.0585   -1.5993   11.8908 F   0  0  0  0  0  0
    3.8805   -2.2248    2.6841 F   0  0  0  0  0  0
    2.0751   -8.9543   -3.1896 H   0  0  0  0  0  0
    0.4889   -8.3110   -2.6449 H   0  0  0  0  0  0
    1.8144   -8.5558   -1.4575 H   0  0  0  0  0  0
    2.7833   -6.7240   -3.5203 H   0  0  0  0  0  0
    4.2335   -3.3879   -4.5855 H   0  0  0  0  0  0
    3.6432   -1.2238   -3.4920 H   0  0  0  0  0  0
    1.0203   -3.4348   -0.8895 H   0  0  0  0  0  0
    3.7640   -2.0790    0.0893 H   0  0  0  0  0  0
   -0.0814   -0.0334    2.4691 H   0  0  0  0  0  0
   -0.0029    0.0031    0.0057 H   0  0  0  0  0  0
    2.5706   -1.5670    4.6400 H   0  0  0  0  0  0
    1.8433   -1.2995    8.7811 H   0  0  0  0  0  0
   -2.4828    1.1001    8.3628 H   0  0  0  0  0  0
   -1.2310    0.4770    6.3447 H   0  0  0  0  0  0
   -0.9842    0.3730    5.2898 H   0  0  0  0  0  0
  1  2  1  0  0  0
  1 34  1  0  0  0
  1 35  1  0  0  0
  1 36  1  0  0  0
  2  3  1  0  0  0
  2 37  1  0  0  0
  3  4  2  0  0  0
  3  5  1  0  0  0
  5 10  2  0  0  0
  5  6  1  0  0  0
  6  7  2  0  0  0
  7  8  1  0  0  0
  7 38  1  0  0  0
  8  9  2  0  0  0
  8 39  1  0  0  0
  9 10  1  0  0  0
  9 11  1  0  0  0
 10 40  1  0  0  0
 11 12  1  0  0  0
 12 17  2  0  0  0
 12 13  1  0  0  0
 13 14  2  0  0  0
 13 41  1  0  0  0
 14 15  1  0  0  0
 14 33  1  0  0  0
 15 16  2  0  0  0
 15 18  1  0  0  0
 16 17  1  0  0  0
 16 42  1  0  0  0
 17 43  1  0  0  0
 18 19  1  0  0  0
 18 44  1  0  0  0
 19 20  1  0  0  0
 19 21  2  0  0  0
 20 48  1  0  0  0
 21 22  1  0  0  0
 22 27  2  0  0  0
 22 23  1  0  0  0
 23 24  2  0  0  0
 23 45  1  0  0  0
 24 25  1  0  0  0
 24 29  1  0  0  0
 25 26  2  0  0  0
 25 28  1  0  0  0
 26 27  1  0  0  0
 26 46  1  0  0  0
 27 47  1  0  0  0
 29 30  1  0  0  0
 29 31  1  0  0  0
 29 32  1  0  0  0
M  END
> <s_m_source_file>
/Users/andrea/Development/mcce-charges/epik_inhibitors/output/Regorafenib/Regorafenib-input.mol2

> <i_m_source_file_index>
1

> <r_epik_Ionization_Penalty>
  4.1099

> <r_epik_Ionization_Penalty_Charging>
  0.0000

> <r_epik_Ionization_Penalty_Neutral>
  4.1099

> <r_epik_State_Penalty>
 10.4422

> <i_epik_Tot_Q>
0

> <s_epik_Chemistry_Notes>
This compound has an imine and may undergo hydrolysis.

$$$$
4-[4-[[4-chloro-3-(trifluoromethyl)phenyl]carbamoylamino]-3-fluoro-phenoxy]-~{N}-methyl-pyridine-2-carboxamide
                    3D
 Structure written by MMmdl.
 49 51  0  0  1  0            999 V2000
    1.5772   -8.2652   -2.4916 C   0  0  0  0  0  0
    2.0412   -6.9178   -2.7318 N   0  0  0  0  0  0
    1.5852   -5.8335   -1.9992 C   0  0  0  0  0  0
    0.7603   -5.8957   -1.0912 O   0  0  0  0  0  0
    2.1276   -4.5400   -2.3778 C   0  0  0  0  0  0
    3.0125   -4.5522   -3.3998 N   0  3  0  0  0  0
    3.5262   -3.3557   -3.7633 C   0  0  0  0  0  0
    3.1984   -2.1540   -3.1564 C   0  0  0  0  0  0
    2.2847   -2.1821   -2.1088 C   0  0  0  0  0  0
    1.7344   -3.3938   -1.7059 C   0  0  0  0  0  0
    1.9260   -1.0142   -1.4728 O   0  0  0  0  0  0
    1.8851   -1.0363   -0.1124 C   0  0  0  0  0  0
    2.9210   -1.6309    0.6081 C   0  0  0  0  0  0
    2.8783   -1.6520    2.0022 C   0  0  0  0  0  0
    1.7997   -1.0786    2.6757 C   0  0  0  0  0  0
    0.7638   -0.4841    1.9551 C   0  0  0  0  0  0
    0.8066   -0.4630    0.5610 C   0  0  0  0  0  0
    1.7547   -1.0986    4.0700 N   0  0  0  0  0  0
    0.7577   -0.5763    4.9298 C   0  0  0  0  0  0
   -0.2594   -0.0031    4.5527 O   0  0  0  0  0  0
    1.1077   -0.8125    6.2689 N   0  0  0  0  0  0
    0.3887   -0.4532    7.4333 C   0  0  0  0  0  0
    0.8948   -0.7739    8.6930 C   0  0  0  0  0  0
    0.1850   -0.4201    9.8405 C   0  0  0  0  0  0
   -1.0309    0.2543    9.7283 C   0  0  0  0  0  0
   -1.5369    0.5749    8.4686 C   0  0  0  0  0  0
   -0.8271    0.2211    7.3211 C   0  0  0  0  0  0
   -1.9353    0.7104   11.1258 Cl  0  0  0  0  0  0
    0.7615   -0.7810   11.1715 C   0  0  0  0  0  0
    1.9557   -1.4362   11.0877 F   0  0  0  0  0  0
    0.9998    0.2987   11.9712 F   0  0  0  0  0  0
   -0.0585   -1.5993   11.8908 F   0  0  0  0  0  0
    3.8805   -2.2248    2.6841 F   0  0  0  0  0  0
    2.0751   -8.9543   -3.1896 H   0  0  0  0  0  0
    0.4889   -8.3110   -2.6449 H   0  0  0  0  0  0
    1.8144   -8.5558   -1.4575 H   0  0  0  0  0  0
    2.7833   -6.7240   -3.5203 H   0  0  0  0  0  0
    4.2335   -3.3879   -4.5855 H   0  0  0  0  0  0
    3.6432   -1.2238   -3.4920 H   0  0  0  0  0  0
    1.0203   -3.4348   -0.8895 H   0  0  0  0  0  0
    3.7640   -2.0790    0.0893 H   0  0  0  0  0  0
   -0.0814   -0.0334    2.4691 H   0  0  0  0  0  0
   -0.0029    0.0031    0.0057 H   0  0  0  0  0  0
    2.5706   -1.5670    4.6400 H   0  0  0  0  0  0
    2.0445   -1.3371    6.5082 H   0  0  0  0  0  0
    1.8433   -1.2995    8.7811 H   0  0  0  0  0  0
   -2.4828    1.1001    8.3628 H   0  0  0  0  0  0
   -1.2310    0.4770    6.3447 H   0  0  0  0  0  0
    3.2775   -5.5024   -3.8866 H   0  0  0  0  0  0
  1  2  1  0  0  0
  1 34  1  0  0  0
  1 35  1  0  0  0
  1 36  1  0  0  0
  2  3  1  0  0  0
  2 37  1  0  0  0
  3  4  2  0  0  0
  3  5  1  0  0  0
  5 10  2  0  0  0
  5  6  1  0  0  0
  6  7  2  0  0  0
  6 49  1  0  0  0
  7  8  1  0  0  0
  7 38  1  0  0  0
  8  9  2  0  0  0
  8 39  1  0  0  0
  9 10  1  0  0  0
  9 11  1  0  0  0
 10 40  1  0  0  0
 11 12  1  0  0  0
 12 17  2  0  0  0
 12 13  1  0  0  0
 13 14  2  0  0  0
 13 41  1  0  0  0
 14 15  1  0  0  0
 14 33  1  0  0  0
 15 16  2  0  0  0
 15 18  1  0  0  0
 16 17  1  0  0  0
 16 42  1  0  0  0
 17 43  1  0  0  0
 18 19  1  0  0  0
 18 44  1  0  0  0
 19 20  2  0  0  0
 19 21  1  0  0  0
 21 22  1  0  0  0
 21 45  1  0  0  0
 22 27  2  0  0  0
 22 23  1  0  0  0
 23 24  2  0  0  0
 23 46  1  0  0  0
 24 25  1  0  0  0
 24 29  1  0  0  0
 25 26  2  0  0  0
 25 28  1  0  0  0
 26 27  1  0  0  0
 26 47  1  0  0  0
 27 48  1  0  0  0
 29 30  1  0  0  0
 29 31  1  0  0  0
 29 32  1  0  0  0
M  CHG  1   6   1
M  END
> <s_m_source_file>
/Users/andrea/Development/mcce-charges/epik_inhibitors/output/Regorafenib/Regorafenib-input.mol2

> <i_m_source_file_index>
1

> <r_lp_tautomer_probability>
1

> <r_epik_Ionization_Penalty>
  8.1194

> <r_epik_Ionization_Penalty_Charging>
  7.5886

> <r_epik_Ionization_Penalty_Neutral>
  0.5308

> <r_epik_State_Penalty>
 11.3954

> <i_epik_Tot_Q>
1

$$$$
4-[4-[[4-chloro-3-(trifluoromethyl)phenyl]carbamoylamino]-3-fluoro-phenoxy]-~{N}-methyl-pyridine-2-carboxamide
                    3D
 Structure written by MMmdl.
 46 48  0  0  1  0            999 V2000
    1.5772   -8.2652   -2.4916 C   0  0  0  0  0  0
    2.0412   -6.9178   -2.7318 N   0  0  0  0  0  0
    1.5852   -5.8335   -1.9992 C   0  0  0  0  0  0
    0.7603   -5.8957   -1.0912 O   0  5  0  0  0  0
    2.1276   -4.5400   -2.3778 C   0  0  0  0  0  0
    3.0125   -4.5522   -3.3998 N   0  0  0  0  0  0
    3.5262   -3.3557   -3.7633 C   0  0  0  0  0  0
    3.1984   -2.1540   -3.1564 C   0  0  0  0  0  0
    2.2847   -2.1821   -2.1088 C   0  0  0  0  0  0
    1.7344   -3.3938   -1.7059 C   0  0  0  0  0  0
    1.9260   -1.0142   -1.4728 O   0  0  0  0  0  0
    1.8851   -1.0363   -0.1124 C   0  0  0  0  0  0
    2.9210   -1.6309    0.6081 C   0  0  0  0  0  0
    2.8783   -1.6520    2.0022 C   0  0  0  0  0  0
    1.7997   -1.0786    2.6757 C   0  0  0  0  0  0
    0.7638   -0.4841    1.9551 C   0  0  0  0  0  0
    0.8066   -0.4630    0.5610 C   0  0  0  0  0  0
    1.7547   -1.0986    4.0700 N   0  0  0  0  0  0
    0.7577   -0.5763    4.9298 C   0  0  0  0  0  0
   -0.2594   -0.0031    4.5527 O   0  5  0  0  0  0
    1.1077   -0.8125    6.2689 N   0  0  0  0  0  0
    0.3887   -0.4532    7.4333 C   0  0  0  0  0  0
    0.8948   -0.7739    8.6930 C   0  0  0  0  0  0
    0.1850   -0.4201    9.8405 C   0  0  0  0  0  0
   -1.0309    0.2543    9.7283 C   0  0  0  0  0  0
   -1.5369    0.5749    8.4686 C   0  0  0  0  0  0
   -0.8271    0.2211    7.3211 C   0  0  0  0  0  0
   -1.9353    0.7104   11.1258 Cl  0  0  0  0  0  0
    0.7615   -0.7810   11.1715 C   0  0  0  0  0  0
    1.9557   -1.4362   11.0877 F   0  0  0  0  0  0
    0.9998    0.2987   11.9712 F   0  0  0  0  0  0
   -0.0585   -1.5993   11.8908 F   0  0  0  0  0  0
    3.8805   -2.2248    2.6841 F   0  0  0  0  0  0
    2.0751   -8.9543   -3.1896 H   0  0  0  0  0  0
    0.4889   -8.3110   -2.6449 H   0  0  0  0  0  0
    1.8144   -8.5558   -1.4575 H   0  0  0  0  0  0
    4.2335   -3.3879   -4.5855 H   0  0  0  0  0  0
    3.6432   -1.2238   -3.4920 H   0  0  0  0  0  0
    1.0203   -3.4348   -0.8895 H   0  0  0  0  0  0
    3.6944   -2.0418    0.1253 H   0  0  0  0  0  0
   -0.0091   -0.0724    2.4379 H   0  0  0  0  0  0
    0.0647   -0.0356    0.0444 H   0  0  0  0  0  0
    2.5706   -1.5670    4.6400 H   0  0  0  0  0  0
    1.8433   -1.2995    8.7811 H   0  0  0  0  0  0
   -2.4828    1.1001    8.3628 H   0  0  0  0  0  0
   -1.2310    0.4770    6.3447 H   0  0  0  0  0  0
  1  2  1  0  0  0
  1 34  1  0  0  0
  1 35  1  0  0  0
  1 36  1  0  0  0
  2  3  2  0  0  0
  3  4  1  0  0  0
  3  5  1  0  0  0
  5 10  2  0  0  0
  5  6  1  0  0  0
  6  7  2  0  0  0
  7  8  1  0  0  0
  7 37  1  0  0  0
  8  9  2  0  0  0
  8 38  1  0  0  0
  9 10  1  0  0  0
  9 11  1  0  0  0
 10 39  1  0  0  0
 11 12  1  0  0  0
 12 17  2  0  0  0
 12 13  1  0  0  0
 13 14  2  0  0  0
 13 40  1  0  0  0
 14 15  1  0  0  0
 14 33  1  0  0  0
 15 16  2  0  0  0
 15 18  1  0  0  0
 16 17  1  0  0  0
 16 41  1  0  0  0
 17 42  1  0  0  0
 18 19  1  0  0  0
 18 43  1  0  0  0
 19 20  1  0  0  0
 19 21  2  0  0  0
 21 22  1  0  0  0
 22 27  2  0  0  0
 22 23  1  0  0  0
 23 24  2  0  0  0
 23 44  1  0  0  0
 24 25  1  0  0  0
 24 29  1  0  0  0
 25 26  2  0  0  0
 25 28  1  0  0  0
 26 27  1  0  0  0
 26 45  1  0  0  0
 27 46  1  0  0  0
 29 30  1  0  0  0
 29 31  1  0  0  0
 29 32  1  0  0  0
M  CHG  2   4  -1  20  -1
M  END
> <s_m_source_file>
/Users/andrea/Development/mcce-charges/epik_inhibitors/output/Regorafenib/Regorafenib-input.mol2

> <i_m_source_file_index>
1

> <r_epik_Ionization_Penalty>
 11.5747

> <r_epik_Ionization_Penalty_Charging>
 11.5715

> <r_epik_Ionization_Penalty_Neutral>
  0.0032

> <r_epik_State_Penalty>
 11.9067

> <i_epik_Tot_Q>
-2

$$$$
4-[4-[[4-chloro-3-(trifluoromethyl)phenyl]carbamoylamino]-3-fluoro-phenoxy]-~{N}-methyl-pyridine-2-carboxamide
                    3D
 Structure written by MMmdl.
 46 48  0  0  1  0            999 V2000
    1.5772   -8.2652   -2.4916 C   0  0  0  0  0  0
    2.0412   -6.9178   -2.7318 N   0  0  0  0  0  0
    1.5852   -5.8335   -1.9992 C   0  0  0  0  0  0
    0.7603   -5.8957   -1.0912 O   0  5  0  0  0  0
    2.1276   -4.5400   -2.3778 C   0  0  0  0  0  0
    3.0125   -4.5522   -3.3998 N   0  0  0  0  0  0
    3.5262   -3.3557   -3.7633 C   0  0  0  0  0  0
    3.1984   -2.1540   -3.1564 C   0  0  0  0  0  0
    2.2847   -2.1821   -2.1088 C   0  0  0  0  0  0
    1.7344   -3.3938   -1.7059 C   0  0  0  0  0  0
    1.9260   -1.0142   -1.4728 O   0  0  0  0  0  0
    1.8851   -1.0363   -0.1124 C   0  0  0  0  0  0
    2.9210   -1.6309    0.6081 C   0  0  0  0  0  0
    2.8783   -1.6520    2.0022 C   0  0  0  0  0  0
    1.7997   -1.0786    2.6757 C   0  0  0  0  0  0
    0.7638   -0.4841    1.9551 C   0  0  0  0  0  0
    0.8066   -0.4630    0.5610 C   0  0  0  0  0  0
    1.7547   -1.0986    4.0700 N   0  0  0  0  0  0
    0.7577   -0.5763    4.9298 C   0  0  0  0  0  0
   -0.2594   -0.0031    4.5527 O   0  5  0  0  0  0
    1.1077   -0.8125    6.2689 N   0  0  0  0  0  0
    0.3887   -0.4532    7.4333 C   0  0  0  0  0  0
    0.8948   -0.7739    8.6930 C   0  0  0  0  0  0
    0.1850   -0.4201    9.8405 C   0  0  0  0  0  0
   -1.0309    0.2543    9.7283 C   0  0  0  0  0  0
   -1.5369    0.5749    8.4686 C   0  0  0  0  0  0
   -0.8271    0.2211    7.3211 C   0  0  0  0  0  0
   -1.9353    0.7104   11.1258 Cl  0  0  0  0  0  0
    0.7615   -0.7810   11.1715 C   0  0  0  0  0  0
    1.9557   -1.4362   11.0877 F   0  0  0  0  0  0
    0.9998    0.2987   11.9712 F   0  0  0  0  0  0
   -0.0585   -1.5993   11.8908 F   0  0  0  0  0  0
    3.8805   -2.2248    2.6841 F   0  0  0  0  0  0
    2.0751   -8.9543   -3.1896 H   0  0  0  0  0  0
    0.4889   -8.3110   -2.6449 H   0  0  0  0  0  0
    1.8144   -8.5558   -1.4575 H   0  0  0  0  0  0
    4.2335   -3.3879   -4.5855 H   0  0  0  0  0  0
    3.6432   -1.2238   -3.4920 H   0  0  0  0  0  0
    1.0203   -3.4348   -0.8895 H   0  0  0  0  0  0
    3.6944   -2.0418    0.1253 H   0  0  0  0  0  0
   -0.0091   -0.0724    2.4379 H   0  0  0  0  0  0
    0.0647   -0.0356    0.0444 H   0  0  0  0  0  0
    2.0445   -1.3371    6.5082 H   0  0  0  0  0  0
    1.8433   -1.2995    8.7811 H   0  0  0  0  0  0
   -2.4828    1.1001    8.3628 H   0  0  0  0  0  0
   -1.2310    0.4770    6.3447 H   0  0  0  0  0  0
  1  2  1  0  0  0
  1 34  1  0  0  0
  1 35  1  0  0  0
  1 36  1  0  0  0
  2  3  2  0  0  0
  3  4  1  0  0  0
  3  5  1  0  0  0
  5 10  2  0  0  0
  5  6  1  0  0  0
  6  7  2  0  0  0
  7  8  1  0  0  0
  7 37  1  0  0  0
  8  9  2  0  0  0
  8 38  1  0  0  0
  9 10  1  0  0  0
  9 11  1  0  0  0
 10 39  1  0  0  0
 11 12  1  0  0  0
 12 17  2  0  0  0
 12 13  1  0  0  0
 13 14  2  0  0  0
 13 40  1  0  0  0
 14 15  1  0  0  0
 14 33  1  0  0  0
 15 16  2  0  0  0
 15 18  1  0  0  0
 16 17  1  0  0  0
 16 41  1  0  0  0
 17 42  1  0  0  0
 18 19  2  0  0  0
 19 20  1  0  0  0
 19 21  1  0  0  0
 21 22  1  0  0  0
 21 43  1  0  0  0
 22 27  2  0  0  0
 22 23  1  0  0  0
 23 24  2  0  0  0
 23 44  1  0  0  0
 24 25  1  0  0  0
 24 29  1  0  0  0
 25 26  2  0  0  0
 25 28  1  0  0  0
 26 27  1  0  0  0
 26 45  1  0  0  0
 27 46  1  0  0  0
 29 30  1  0  0  0
 29 31  1  0  0  0
 29 32  1  0  0  0
M  CHG  2   4  -1  20  -1
M  END
> <s_m_source_file>
/Users/andrea/Development/mcce-charges/epik_inhibitors/output/Regorafenib/Regorafenib-input.mol2

> <i_m_source_file_index>
1

> <r_epik_Ionization_Penalty>
 11.5916

> <r_epik_Ionization_Penalty_Charging>
 11.5884

> <r_epik_Ionization_Penalty_Neutral>
  0.0032

> <r_epik_State_Penalty>
 11.9577

> <i_epik_Tot_Q>
-2

$$$$
