@<TRIPOS>MOLECULE
(~{E})-~{N}-[4-(3-chloro-4-fluoro-anilino)-7-[(3~{S})-tetrahydrofuran-3-yl]oxy-quinazolin-6-yl]-4-(dimethylamino)but-2-enamide
   59    62     0     0     0
SMALL
USER_CHARGES

@<TRIPOS>ATOM
      1 C1         -7.4188    0.8604   -6.3235 C.3       1 AFA         0.1422
      2 N1         -6.9541    2.2345   -6.5099 N.3       1 AFA        -0.7108
      3 C2         -6.9103    2.5707   -7.9324 C.3       1 AFA         0.1422
      4 C3         -5.6397    2.4150   -5.9024 C.3       1 AFA         0.1681
      5 C4         -5.7409    2.6137   -4.4194 C.2       1 AFA        -0.0617
      6 C5         -5.1622    1.7967   -3.5279 C.2       1 AFA        -0.2549
      7 C6         -5.2942    2.0572   -2.0634 C.2       1 AFA         0.6656
      8 O1         -5.9296    3.0166   -1.6425 O.2       1 AFA        -0.5999
      9 N2         -4.6206    1.0931   -1.3249 N.am      1 AFA        -0.4645
     10 C7         -4.5211    1.0077    0.0654 C.ar      1 AFA         0.0475
     11 C8         -3.8067   -0.0223    0.6671 C.ar      1 AFA         0.0972
     12 C9         -3.7167   -0.0923    2.0604 C.ar      1 AFA        -0.2025
     13 C10        -4.3304    0.8528    2.8788 C.ar      1 AFA         0.4355
     14 C11        -5.0493    1.8882    2.2594 C.ar      1 AFA        -0.2820
     15 C12        -5.1444    1.9655    0.8590 C.ar      1 AFA        -0.1131
     16 C13        -5.6484    2.8133    3.1098 C.ar      1 AFA         0.6989
     17 N3         -5.5709    2.7595    4.4528 N.ar      1 AFA        -0.7577
     18 C14        -4.8583    1.7271    4.9314 C.ar      1 AFA         0.6698
     19 N4         -4.2328    0.7694    4.2172 N.ar      1 AFA        -0.7103
     20 N5         -6.3900    3.8870    2.5575 N.pl3     1 AFA        -0.7234
     21 C15        -7.4938    4.6164    3.0274 C.ar      1 AFA         0.1188
     22 C16        -8.4247    4.0083    3.8697 C.ar      1 AFA        -0.0783
     23 C17        -9.5202    4.7338    4.3377 C.ar      1 AFA        -0.0148
     24 C18        -9.6849    6.0674    3.9635 C.ar      1 AFA         0.1261
     25 C19        -8.7541    6.6754    3.1212 C.ar      1 AFA        -0.1467
     26 C20        -7.6586    5.9499    2.6531 C.ar      1 AFA        -0.1379
     27 F1        -10.7338    6.7771    4.4037 F         1 AFA        -0.1254
     28 Cl1       -10.6673    3.9767    5.3744 Cl        1 AFA        -0.0625
     29 O2         -3.1859   -0.9762   -0.0835 O.3       1 AFA        -0.3544
     30 C21        -3.5949   -2.3246    0.1184 C.3       1 AFA         0.1145
     31 H1         -4.3757   -2.3359    0.8832 H         1 AFA         0.0801
     32 C22        -4.0074   -2.9414   -1.1956 C.3       1 AFA        -0.1237
     33 C23        -2.6699   -3.2975   -1.8133 C.3       1 AFA         0.1275
     34 O3         -1.7744   -3.5828   -0.7302 O.3       1 AFA        -0.4189
     35 C24        -2.3865   -3.1549    0.4988 C.3       1 AFA         0.1092
     36 H2         -7.4493    0.6153   -5.2587 H         1 AFA         0.0361
     37 H3         -6.7444    0.1619   -6.8262 H         1 AFA         0.0361
     38 H4         -8.4221    0.7408   -6.7411 H         1 AFA         0.0361
     39 H5         -6.5631    3.5927   -8.0405 H         1 AFA         0.0361
     40 H6         -7.9069    2.4709   -8.3494 H         1 AFA         0.0361
     41 H7         -6.2292    1.8919   -8.4346 H         1 AFA         0.0361
     42 H8         -5.0047    1.5577   -6.1525 H         1 AFA         0.0465
     43 H9         -5.1703    3.3037   -6.3383 H         1 AFA         0.0465
     44 H10        -6.3059    3.4809   -4.0857 H         1 AFA         0.1597
     45 H11        -4.5908    0.9346   -3.8559 H         1 AFA         0.1401
     46 H12        -4.1458    0.3667   -1.8571 H         1 AFA         0.3354
     47 H13        -3.1533   -0.9064    2.5138 H         1 AFA         0.1636
     48 H14        -5.7007    2.7665    0.3765 H         1 AFA         0.1623
     49 H15        -4.7758    1.6541    6.0091 H         1 AFA         0.0555
     50 H16        -6.0538    4.1792    1.6476 H         1 AFA         0.4375
     51 H17        -8.2928    2.9682    4.1603 H         1 AFA         0.1773
     52 H18        -8.8806    7.7144    2.8314 H         1 AFA         0.1553
     53 H19        -6.9388    6.4340    1.9978 H         1 AFA         0.1429
     54 H20        -4.5808   -3.8569   -1.0105 H         1 AFA         0.0663
     55 H21        -4.5912   -2.2818   -1.8431 H         1 AFA         0.0663
     56 H22        -2.7328   -4.1639   -2.4776 H         1 AFA         0.0514
     57 H23        -2.2551   -2.4558   -2.3781 H         1 AFA         0.0514
     58 H24        -2.6837   -4.0579    1.0418 H         1 AFA         0.0630
     59 H25        -1.6471   -2.6049    1.0876 H         1 AFA         0.0630
@<TRIPOS>BOND
     1    1    2 1
     2    2    3 1
     3    2    4 1
     4    4    5 1
     5    5    6 2
     6    6    7 1
     7    7    8 2
     8    7    9 am
     9    9   10 1
    10   10   15 ar
    11   10   11 ar
    12   11   12 ar
    13   12   13 ar
    14   13   19 ar
    15   13   14 ar
    16   14   15 ar
    17   14   16 ar
    18   16   17 ar
    19   17   18 ar
    20   18   19 ar
    21   16   20 1
    22   20   21 1
    23   21   26 ar
    24   21   22 ar
    25   22   23 ar
    26   23   24 ar
    27   24   25 ar
    28   25   26 ar
    29   24   27 1
    30   23   28 1
    31   11   29 1
    32   29   30 1
    33   30   31 1
    34   30   35 1
    35   30   32 1
    36   32   33 1
    37   33   34 1
    38   34   35 1
    39    1   36 1
    40    1   37 1
    41    1   38 1
    42    3   39 1
    43    3   40 1
    44    3   41 1
    45    4   42 1
    46    4   43 1
    47    5   44 1
    48    6   45 1
    49    9   46 1
    50   12   47 1
    51   15   48 1
    52   18   49 1
    53   20   50 1
    54   22   51 1
    55   25   52 1
    56   26   53 1
    57   32   54 1
    58   32   55 1
    59   33   56 1
    60   33   57 1
    61   35   58 1
    62   35   59 1
