(~{E})-~{N}-[4-(3-chloro-4-fluoro-anilino)-7-[(3~{S})-tetrahydrofuran-3-yl]oxy-quinazolin-6-yl]-4-(dimethylamino)but-2-enamide
                    3D
 Structure written by MMmdl.
 60 63  0  0  1  0            999 V2000
   -7.4202    0.8609   -6.3224 C   0  0  0  0  0  0
   -6.9556    2.2350   -6.5089 N   0  3  0  0  0  0
   -6.9127    2.5714   -7.9314 C   0  0  0  0  0  0
   -5.6408    2.4154   -5.9022 C   0  0  0  0  0  0
   -5.7413    2.6139   -4.4191 C   0  0  0  0  0  0
   -5.1623    1.7969   -3.5279 C   0  0  0  0  0  0
   -5.2942    2.0572   -2.0634 C   0  0  0  0  0  0
   -5.9298    3.0164   -1.6424 O   0  3  0  0  0  0
   -4.6206    1.0931   -1.3249 N   0  5  0  0  0  0
   -4.5211    1.0077    0.0654 C   0  0  0  0  0  0
   -3.8067   -0.0223    0.6671 C   0  0  0  0  0  0
   -3.7167   -0.0923    2.0604 C   0  0  0  0  0  0
   -4.3304    0.8528    2.8788 C   0  0  0  0  0  0
   -5.0493    1.8882    2.2594 C   0  0  0  0  0  0
   -5.1444    1.9655    0.8590 C   0  0  0  0  0  0
   -5.6484    2.8133    3.1098 C   0  0  0  0  0  0
   -5.5709    2.7595    4.4528 N   0  0  0  0  0  0
   -4.8583    1.7271    4.9314 C   0  0  0  0  0  0
   -4.2328    0.7694    4.2172 N   0  0  0  0  0  0
   -6.3900    3.8870    2.5575 N   0  0  0  0  0  0
   -7.4938    4.6164    3.0274 C   0  0  0  0  0  0
   -8.4247    4.0083    3.8697 C   0  0  0  0  0  0
   -9.5202    4.7338    4.3377 C   0  0  0  0  0  0
   -9.6849    6.0674    3.9635 C   0  0  0  0  0  0
   -8.7541    6.6754    3.1212 C   0  0  0  0  0  0
   -7.6586    5.9499    2.6531 C   0  0  0  0  0  0
  -10.7337    6.7771    4.4037 F   0  0  0  0  0  0
  -10.6673    3.9767    5.3744 Cl  0  0  0  0  0  0
   -3.1859   -0.9762   -0.0835 O   0  0  0  0  0  0
   -3.5949   -2.3246    0.1184 C   0  0  1  0  0  0
   -4.3940   -2.2591    0.8715 H   0  0  0  0  0  0
   -4.0074   -2.9414   -1.1956 C   0  0  0  0  0  0
   -2.6699   -3.2975   -1.8133 C   0  0  0  0  0  0
   -1.7744   -3.5828   -0.7302 O   0  0  0  0  0  0
   -2.3865   -3.1549    0.4988 C   0  0  0  0  0  0
   -7.4462    0.6253   -5.2482 H   0  0  0  0  0  0
   -6.7339    0.1693   -6.8330 H   0  0  0  0  0  0
   -8.4299    0.7546   -6.7457 H   0  0  0  0  0  0
   -6.5616    3.6068   -8.0529 H   0  0  0  0  0  0
   -7.9201    2.4729   -8.3620 H   0  0  0  0  0  0
   -6.2241    1.8876   -8.4493 H   0  0  0  0  0  0
   -5.0237    1.5249   -6.0928 H   0  0  0  0  0  0
   -5.1535    3.2995   -6.3391 H   0  0  0  0  0  0
   -6.3246    3.4800   -4.0734 H   0  0  0  0  0  0
   -4.5847    0.9269   -3.8735 H   0  0  0  0  0  0
   -3.1533   -0.9064    2.5138 H   0  0  0  0  0  0
   -5.7007    2.7665    0.3765 H   0  0  0  0  0  0
   -4.7758    1.6541    6.0091 H   0  0  0  0  0  0
   -6.1189    4.2930    1.5718 H   0  0  0  0  0  0
   -8.2928    2.9682    4.1603 H   0  0  0  0  0  0
   -8.8806    7.7144    2.8315 H   0  0  0  0  0  0
   -6.9388    6.4340    1.9978 H   0  0  0  0  0  0
   -4.6409   -3.8203   -1.0052 H   0  0  0  0  0  0
   -4.5711   -2.2040   -1.7859 H   0  0  0  0  0  0
   -2.7887   -4.1771   -2.4631 H   0  0  0  0  0  0
   -2.3034   -2.4485   -2.4090 H   0  0  0  0  0  0
   -1.6906   -2.5406    1.0890 H   0  0  0  0  0  0
   -2.7094   -4.0199    1.0966 H   0  0  0  0  0  0
   -6.0133    3.1882   -0.5591 H   0  0  0  0  0  0
   -7.6630    2.9141   -6.0104 H   0  0  0  0  0  0
  1  2  1  0  0  0
  1 36  1  0  0  0
  1 37  1  0  0  0
  1 38  1  0  0  0
  2  3  1  0  0  0
  2  4  1  0  0  0
  2 60  1  0  0  0
  3 39  1  0  0  0
  3 40  1  0  0  0
  3 41  1  0  0  0
  4  5  1  0  0  0
  4 42  1  0  0  0
  4 43  1  0  0  0
  5  6  2  0  0  0
  5 44  1  0  0  0
  6  7  1  0  0  0
  6 45  1  0  0  0
  7  8  2  0  0  0
  7  9  1  0  0  0
  8 59  1  0  0  0
  9 10  1  0  0  0
 10 15  2  0  0  0
 10 11  1  0  0  0
 11 12  2  0  0  0
 11 29  1  0  0  0
 12 13  1  0  0  0
 12 46  1  0  0  0
 13 19  1  0  0  0
 13 14  2  0  0  0
 14 15  1  0  0  0
 14 16  1  0  0  0
 15 47  1  0  0  0
 16 17  2  0  0  0
 16 20  1  0  0  0
 17 18  1  0  0  0
 18 19  2  0  0  0
 18 48  1  0  0  0
 20 21  1  0  0  0
 20 49  1  0  0  0
 21 26  2  0  0  0
 21 22  1  0  0  0
 22 23  2  0  0  0
 22 50  1  0  0  0
 23 24  1  0  0  0
 23 28  1  0  0  0
 24 25  2  0  0  0
 24 27  1  0  0  0
 25 26  1  0  0  0
 25 51  1  0  0  0
 26 52  1  0  0  0
 29 30  1  0  0  0
 30 31  1  0  0  0
 30 35  1  0  0  0
 30 32  1  0  0  0
 32 33  1  0  0  0
 32 53  1  0  0  0
 32 54  1  0  0  0
 33 34  1  0  0  0
 33 55  1  0  0  0
 33 56  1  0  0  0
 34 35  1  0  0  0
 35 57  1  0  0  0
 35 58  1  0  0  0
M  CHG  3   2   1   8   1   9  -1
M  END
> <s_m_source_file>
/cbio/jclab/home/andrrizzi/epik_inhibitors/output/Afatinib/Afatinib-input.mol2

> <i_m_source_file_index>
1

> <r_epik_Ionization_Penalty>
  0.0402

> <r_epik_Ionization_Penalty_Charging>
  0.0356

> <r_epik_Ionization_Penalty_Neutral>
  0.0045

> <r_epik_State_Penalty>
  0.5418

> <i_epik_Tot_Q>
1

$$$$
(~{E})-~{N}-[4-(3-chloro-4-fluoro-anilino)-7-[(3~{S})-tetrahydrofuran-3-yl]oxy-quinazolin-6-yl]-4-(dimethylamino)but-2-enamide
                    3D
 Structure written by MMmdl.
 60 63  0  0  1  0            999 V2000
   -7.4202    0.8609   -6.3224 C   0  0  0  0  0  0
   -6.9556    2.2350   -6.5089 N   0  3  0  0  0  0
   -6.9127    2.5714   -7.9314 C   0  0  0  0  0  0
   -5.6408    2.4154   -5.9022 C   0  0  0  0  0  0
   -5.7413    2.6139   -4.4191 C   0  0  0  0  0  0
   -5.1623    1.7969   -3.5279 C   0  0  0  0  0  0
   -5.2942    2.0572   -2.0634 C   0  0  0  0  0  0
   -5.9298    3.0164   -1.6424 O   0  0  0  0  0  0
   -4.6206    1.0931   -1.3249 N   0  0  0  0  0  0
   -4.5211    1.0077    0.0654 C   0  0  0  0  0  0
   -3.8067   -0.0223    0.6671 C   0  0  0  0  0  0
   -3.7167   -0.0923    2.0604 C   0  0  0  0  0  0
   -4.3304    0.8528    2.8788 C   0  0  0  0  0  0
   -5.0493    1.8882    2.2594 C   0  0  0  0  0  0
   -5.1444    1.9655    0.8590 C   0  0  0  0  0  0
   -5.6484    2.8133    3.1098 C   0  0  0  0  0  0
   -5.5709    2.7595    4.4528 N   0  0  0  0  0  0
   -4.8583    1.7271    4.9314 C   0  0  0  0  0  0
   -4.2328    0.7694    4.2172 N   0  0  0  0  0  0
   -6.3900    3.8870    2.5575 N   0  0  0  0  0  0
   -7.4938    4.6164    3.0274 C   0  0  0  0  0  0
   -8.4247    4.0083    3.8697 C   0  0  0  0  0  0
   -9.5202    4.7338    4.3377 C   0  0  0  0  0  0
   -9.6849    6.0674    3.9635 C   0  0  0  0  0  0
   -8.7541    6.6754    3.1212 C   0  0  0  0  0  0
   -7.6586    5.9499    2.6531 C   0  0  0  0  0  0
  -10.7337    6.7771    4.4037 F   0  0  0  0  0  0
  -10.6673    3.9767    5.3744 Cl  0  0  0  0  0  0
   -3.1859   -0.9762   -0.0835 O   0  0  0  0  0  0
   -3.5949   -2.3246    0.1184 C   0  0  1  0  0  0
   -4.3940   -2.2591    0.8715 H   0  0  0  0  0  0
   -4.0074   -2.9414   -1.1956 C   0  0  0  0  0  0
   -2.6699   -3.2975   -1.8133 C   0  0  0  0  0  0
   -1.7744   -3.5828   -0.7302 O   0  0  0  0  0  0
   -2.3865   -3.1549    0.4988 C   0  0  0  0  0  0
   -7.4462    0.6253   -5.2482 H   0  0  0  0  0  0
   -6.7339    0.1693   -6.8330 H   0  0  0  0  0  0
   -8.4299    0.7546   -6.7457 H   0  0  0  0  0  0
   -6.5616    3.6068   -8.0529 H   0  0  0  0  0  0
   -7.9201    2.4729   -8.3620 H   0  0  0  0  0  0
   -6.2241    1.8876   -8.4493 H   0  0  0  0  0  0
   -5.0237    1.5249   -6.0928 H   0  0  0  0  0  0
   -5.1535    3.2995   -6.3391 H   0  0  0  0  0  0
   -6.3246    3.4800   -4.0734 H   0  0  0  0  0  0
   -4.5847    0.9269   -3.8735 H   0  0  0  0  0  0
   -4.0868    0.2801   -1.8388 H   0  0  0  0  0  0
   -3.1533   -0.9064    2.5138 H   0  0  0  0  0  0
   -5.7007    2.7665    0.3765 H   0  0  0  0  0  0
   -4.7758    1.6541    6.0091 H   0  0  0  0  0  0
   -6.1189    4.2930    1.5718 H   0  0  0  0  0  0
   -8.2928    2.9682    4.1603 H   0  0  0  0  0  0
   -8.8806    7.7144    2.8315 H   0  0  0  0  0  0
   -6.9388    6.4340    1.9978 H   0  0  0  0  0  0
   -4.6409   -3.8203   -1.0052 H   0  0  0  0  0  0
   -4.5711   -2.2040   -1.7859 H   0  0  0  0  0  0
   -2.7887   -4.1771   -2.4631 H   0  0  0  0  0  0
   -2.3034   -2.4485   -2.4090 H   0  0  0  0  0  0
   -1.6906   -2.5406    1.0890 H   0  0  0  0  0  0
   -2.7094   -4.0199    1.0966 H   0  0  0  0  0  0
   -7.6630    2.9141   -6.0104 H   0  0  0  0  0  0
  1  2  1  0  0  0
  1 36  1  0  0  0
  1 37  1  0  0  0
  1 38  1  0  0  0
  2  3  1  0  0  0
  2  4  1  0  0  0
  2 60  1  0  0  0
  3 39  1  0  0  0
  3 40  1  0  0  0
  3 41  1  0  0  0
  4  5  1  0  0  0
  4 42  1  0  0  0
  4 43  1  0  0  0
  5  6  2  0  0  0
  5 44  1  0  0  0
  6  7  1  0  0  0
  6 45  1  0  0  0
  7  8  2  0  0  0
  7  9  1  0  0  0
  9 10  1  0  0  0
  9 46  1  0  0  0
 10 15  2  0  0  0
 10 11  1  0  0  0
 11 12  2  0  0  0
 11 29  1  0  0  0
 12 13  1  0  0  0
 12 47  1  0  0  0
 13 19  1  0  0  0
 13 14  2  0  0  0
 14 15  1  0  0  0
 14 16  1  0  0  0
 15 48  1  0  0  0
 16 17  2  0  0  0
 16 20  1  0  0  0
 17 18  1  0  0  0
 18 19  2  0  0  0
 18 49  1  0  0  0
 20 21  1  0  0  0
 20 50  1  0  0  0
 21 26  2  0  0  0
 21 22  1  0  0  0
 22 23  2  0  0  0
 22 51  1  0  0  0
 23 24  1  0  0  0
 23 28  1  0  0  0
 24 25  2  0  0  0
 24 27  1  0  0  0
 25 26  1  0  0  0
 25 52  1  0  0  0
 26 53  1  0  0  0
 29 30  1  0  0  0
 30 31  1  0  0  0
 30 35  1  0  0  0
 30 32  1  0  0  0
 32 33  1  0  0  0
 32 54  1  0  0  0
 32 55  1  0  0  0
 33 34  1  0  0  0
 33 56  1  0  0  0
 33 57  1  0  0  0
 34 35  1  0  0  0
 35 58  1  0  0  0
 35 59  1  0  0  0
M  CHG  1   2   1
M  END
> <s_m_source_file>
/cbio/jclab/home/andrrizzi/epik_inhibitors/output/Afatinib/Afatinib-input.mol2

> <i_m_source_file_index>
1

> <r_epik_Ionization_Penalty>
  0.3700

> <r_epik_Ionization_Penalty_Charging>
  0.3693

> <r_epik_Ionization_Penalty_Neutral>
  0.0007

> <r_epik_State_Penalty>
  0.6896

> <i_epik_Tot_Q>
1

$$$$
(~{E})-~{N}-[4-(3-chloro-4-fluoro-anilino)-7-[(3~{S})-tetrahydrofuran-3-yl]oxy-quinazolin-6-yl]-4-(dimethylamino)but-2-enamide
                    3D
 Structure written by MMmdl.
 59 62  0  0  1  0            999 V2000
   -7.4202    0.8609   -6.3224 C   0  0  0  0  0  0
   -6.9556    2.2350   -6.5089 N   0  0  0  0  0  0
   -6.9127    2.5714   -7.9314 C   0  0  0  0  0  0
   -5.6408    2.4154   -5.9022 C   0  0  0  0  0  0
   -5.7413    2.6139   -4.4191 C   0  0  0  0  0  0
   -5.1623    1.7969   -3.5279 C   0  0  0  0  0  0
   -5.2942    2.0572   -2.0634 C   0  0  0  0  0  0
   -5.9298    3.0164   -1.6424 O   0  0  0  0  0  0
   -4.6206    1.0931   -1.3249 N   0  0  0  0  0  0
   -4.5211    1.0077    0.0654 C   0  0  0  0  0  0
   -3.8067   -0.0223    0.6671 C   0  0  0  0  0  0
   -3.7167   -0.0923    2.0604 C   0  0  0  0  0  0
   -4.3304    0.8528    2.8788 C   0  0  0  0  0  0
   -5.0493    1.8882    2.2594 C   0  0  0  0  0  0
   -5.1444    1.9655    0.8590 C   0  0  0  0  0  0
   -5.6484    2.8133    3.1098 C   0  0  0  0  0  0
   -5.5709    2.7595    4.4528 N   0  0  0  0  0  0
   -4.8583    1.7271    4.9314 C   0  0  0  0  0  0
   -4.2328    0.7694    4.2172 N   0  0  0  0  0  0
   -6.3900    3.8870    2.5575 N   0  0  0  0  0  0
   -7.4938    4.6164    3.0274 C   0  0  0  0  0  0
   -8.4247    4.0083    3.8697 C   0  0  0  0  0  0
   -9.5202    4.7338    4.3377 C   0  0  0  0  0  0
   -9.6849    6.0674    3.9635 C   0  0  0  0  0  0
   -8.7541    6.6754    3.1212 C   0  0  0  0  0  0
   -7.6586    5.9499    2.6531 C   0  0  0  0  0  0
  -10.7337    6.7771    4.4037 F   0  0  0  0  0  0
  -10.6673    3.9767    5.3744 Cl  0  0  0  0  0  0
   -3.1859   -0.9762   -0.0835 O   0  0  0  0  0  0
   -3.5949   -2.3246    0.1184 C   0  0  1  0  0  0
   -4.3940   -2.2591    0.8715 H   0  0  0  0  0  0
   -4.0074   -2.9414   -1.1956 C   0  0  0  0  0  0
   -2.6699   -3.2975   -1.8133 C   0  0  0  0  0  0
   -1.7744   -3.5828   -0.7302 O   0  0  0  0  0  0
   -2.3865   -3.1549    0.4988 C   0  0  0  0  0  0
   -7.4462    0.6253   -5.2482 H   0  0  0  0  0  0
   -6.7339    0.1693   -6.8330 H   0  0  0  0  0  0
   -8.4299    0.7546   -6.7457 H   0  0  0  0  0  0
   -6.5616    3.6068   -8.0529 H   0  0  0  0  0  0
   -7.9201    2.4729   -8.3620 H   0  0  0  0  0  0
   -6.2241    1.8876   -8.4493 H   0  0  0  0  0  0
   -5.0237    1.5249   -6.0928 H   0  0  0  0  0  0
   -5.1535    3.2995   -6.3391 H   0  0  0  0  0  0
   -6.3246    3.4800   -4.0734 H   0  0  0  0  0  0
   -4.5847    0.9269   -3.8735 H   0  0  0  0  0  0
   -4.0868    0.2801   -1.8388 H   0  0  0  0  0  0
   -3.1533   -0.9064    2.5138 H   0  0  0  0  0  0
   -5.7007    2.7665    0.3765 H   0  0  0  0  0  0
   -4.7758    1.6541    6.0091 H   0  0  0  0  0  0
   -6.1189    4.2930    1.5718 H   0  0  0  0  0  0
   -8.2928    2.9682    4.1603 H   0  0  0  0  0  0
   -8.8806    7.7144    2.8315 H   0  0  0  0  0  0
   -6.9388    6.4340    1.9978 H   0  0  0  0  0  0
   -4.6409   -3.8203   -1.0052 H   0  0  0  0  0  0
   -4.5711   -2.2040   -1.7859 H   0  0  0  0  0  0
   -2.7887   -4.1771   -2.4631 H   0  0  0  0  0  0
   -2.3034   -2.4485   -2.4090 H   0  0  0  0  0  0
   -1.6906   -2.5406    1.0890 H   0  0  0  0  0  0
   -2.7094   -4.0199    1.0966 H   0  0  0  0  0  0
  1  2  1  0  0  0
  1 36  1  0  0  0
  1 37  1  0  0  0
  1 38  1  0  0  0
  2  3  1  0  0  0
  2  4  1  0  0  0
  3 39  1  0  0  0
  3 40  1  0  0  0
  3 41  1  0  0  0
  4  5  1  0  0  0
  4 42  1  0  0  0
  4 43  1  0  0  0
  5  6  2  0  0  0
  5 44  1  0  0  0
  6  7  1  0  0  0
  6 45  1  0  0  0
  7  8  2  0  0  0
  7  9  1  0  0  0
  9 10  1  0  0  0
  9 46  1  0  0  0
 10 15  2  0  0  0
 10 11  1  0  0  0
 11 12  2  0  0  0
 11 29  1  0  0  0
 12 13  1  0  0  0
 12 47  1  0  0  0
 13 19  1  0  0  0
 13 14  2  0  0  0
 14 15  1  0  0  0
 14 16  1  0  0  0
 15 48  1  0  0  0
 16 17  2  0  0  0
 16 20  1  0  0  0
 17 18  1  0  0  0
 18 19  2  0  0  0
 18 49  1  0  0  0
 20 21  1  0  0  0
 20 50  1  0  0  0
 21 26  2  0  0  0
 21 22  1  0  0  0
 22 23  2  0  0  0
 22 51  1  0  0  0
 23 24  1  0  0  0
 23 28  1  0  0  0
 24 25  2  0  0  0
 24 27  1  0  0  0
 25 26  1  0  0  0
 25 52  1  0  0  0
 26 53  1  0  0  0
 29 30  1  0  0  0
 30 31  1  0  0  0
 30 35  1  0  0  0
 30 32  1  0  0  0
 32 33  1  0  0  0
 32 54  1  0  0  0
 32 55  1  0  0  0
 33 34  1  0  0  0
 33 56  1  0  0  0
 33 57  1  0  0  0
 34 35  1  0  0  0
 35 58  1  0  0  0
 35 59  1  0  0  0
M  END
> <s_m_source_file>
/cbio/jclab/home/andrrizzi/epik_inhibitors/output/Afatinib/Afatinib-input.mol2

> <i_m_source_file_index>
1

> <r_lp_tautomer_probability>
0.999978000241998

> <r_epik_Ionization_Penalty>
  0.4566

> <r_epik_Ionization_Penalty_Charging>
  0.0000

> <r_epik_Ionization_Penalty_Neutral>
  0.4566

> <r_epik_State_Penalty>
  0.7813

> <i_epik_Tot_Q>
0

$$$$
(~{E})-~{N}-[4-(3-chloro-4-fluoro-anilino)-7-[(3~{S})-tetrahydrofuran-3-yl]oxy-quinazolin-6-yl]-4-(dimethylamino)but-2-enamide
                    3D
 Structure written by MMmdl.
 59 62  0  0  1  0            999 V2000
   -7.4202    0.8609   -6.3224 C   0  0  0  0  0  0
   -6.9556    2.2350   -6.5089 N   0  0  0  0  0  0
   -6.9127    2.5714   -7.9314 C   0  0  0  0  0  0
   -5.6408    2.4154   -5.9022 C   0  0  0  0  0  0
   -5.7413    2.6139   -4.4191 C   0  0  0  0  0  0
   -5.1623    1.7969   -3.5279 C   0  0  0  0  0  0
   -5.2942    2.0572   -2.0634 C   0  0  0  0  0  0
   -5.9298    3.0164   -1.6424 O   0  3  0  0  0  0
   -4.6206    1.0931   -1.3249 N   0  5  0  0  0  0
   -4.5211    1.0077    0.0654 C   0  0  0  0  0  0
   -3.8067   -0.0223    0.6671 C   0  0  0  0  0  0
   -3.7167   -0.0923    2.0604 C   0  0  0  0  0  0
   -4.3304    0.8528    2.8788 C   0  0  0  0  0  0
   -5.0493    1.8882    2.2594 C   0  0  0  0  0  0
   -5.1444    1.9655    0.8590 C   0  0  0  0  0  0
   -5.6484    2.8133    3.1098 C   0  0  0  0  0  0
   -5.5709    2.7595    4.4528 N   0  0  0  0  0  0
   -4.8583    1.7271    4.9314 C   0  0  0  0  0  0
   -4.2328    0.7694    4.2172 N   0  0  0  0  0  0
   -6.3900    3.8870    2.5575 N   0  0  0  0  0  0
   -7.4938    4.6164    3.0274 C   0  0  0  0  0  0
   -8.4247    4.0083    3.8697 C   0  0  0  0  0  0
   -9.5202    4.7338    4.3377 C   0  0  0  0  0  0
   -9.6849    6.0674    3.9635 C   0  0  0  0  0  0
   -8.7541    6.6754    3.1212 C   0  0  0  0  0  0
   -7.6586    5.9499    2.6531 C   0  0  0  0  0  0
  -10.7337    6.7771    4.4037 F   0  0  0  0  0  0
  -10.6673    3.9767    5.3744 Cl  0  0  0  0  0  0
   -3.1859   -0.9762   -0.0835 O   0  0  0  0  0  0
   -3.5949   -2.3246    0.1184 C   0  0  1  0  0  0
   -4.3940   -2.2591    0.8715 H   0  0  0  0  0  0
   -4.0074   -2.9414   -1.1956 C   0  0  0  0  0  0
   -2.6699   -3.2975   -1.8133 C   0  0  0  0  0  0
   -1.7744   -3.5828   -0.7302 O   0  0  0  0  0  0
   -2.3865   -3.1549    0.4988 C   0  0  0  0  0  0
   -7.4462    0.6253   -5.2482 H   0  0  0  0  0  0
   -6.7339    0.1693   -6.8330 H   0  0  0  0  0  0
   -8.4299    0.7546   -6.7457 H   0  0  0  0  0  0
   -6.5616    3.6068   -8.0529 H   0  0  0  0  0  0
   -7.9201    2.4729   -8.3620 H   0  0  0  0  0  0
   -6.2241    1.8876   -8.4493 H   0  0  0  0  0  0
   -5.0237    1.5249   -6.0928 H   0  0  0  0  0  0
   -5.1535    3.2995   -6.3391 H   0  0  0  0  0  0
   -6.3246    3.4800   -4.0734 H   0  0  0  0  0  0
   -4.5847    0.9269   -3.8735 H   0  0  0  0  0  0
   -3.1533   -0.9064    2.5138 H   0  0  0  0  0  0
   -5.7007    2.7665    0.3765 H   0  0  0  0  0  0
   -4.7758    1.6541    6.0091 H   0  0  0  0  0  0
   -6.1189    4.2930    1.5718 H   0  0  0  0  0  0
   -8.2928    2.9682    4.1603 H   0  0  0  0  0  0
   -8.8806    7.7144    2.8315 H   0  0  0  0  0  0
   -6.9388    6.4340    1.9978 H   0  0  0  0  0  0
   -4.6409   -3.8203   -1.0052 H   0  0  0  0  0  0
   -4.5711   -2.2040   -1.7859 H   0  0  0  0  0  0
   -2.7887   -4.1771   -2.4631 H   0  0  0  0  0  0
   -2.3034   -2.4485   -2.4090 H   0  0  0  0  0  0
   -1.6906   -2.5406    1.0890 H   0  0  0  0  0  0
   -2.7094   -4.0199    1.0966 H   0  0  0  0  0  0
   -6.0133    3.1882   -0.5591 H   0  0  0  0  0  0
  1  2  1  0  0  0
  1 36  1  0  0  0
  1 37  1  0  0  0
  1 38  1  0  0  0
  2  3  1  0  0  0
  2  4  1  0  0  0
  3 39  1  0  0  0
  3 40  1  0  0  0
  3 41  1  0  0  0
  4  5  1  0  0  0
  4 42  1  0  0  0
  4 43  1  0  0  0
  5  6  2  0  0  0
  5 44  1  0  0  0
  6  7  1  0  0  0
  6 45  1  0  0  0
  7  8  2  0  0  0
  7  9  1  0  0  0
  8 59  1  0  0  0
  9 10  1  0  0  0
 10 15  2  0  0  0
 10 11  1  0  0  0
 11 12  2  0  0  0
 11 29  1  0  0  0
 12 13  1  0  0  0
 12 46  1  0  0  0
 13 19  1  0  0  0
 13 14  2  0  0  0
 14 15  1  0  0  0
 14 16  1  0  0  0
 15 47  1  0  0  0
 16 17  2  0  0  0
 16 20  1  0  0  0
 17 18  1  0  0  0
 18 19  2  0  0  0
 18 48  1  0  0  0
 20 21  1  0  0  0
 20 49  1  0  0  0
 21 26  2  0  0  0
 21 22  1  0  0  0
 22 23  2  0  0  0
 22 50  1  0  0  0
 23 24  1  0  0  0
 23 28  1  0  0  0
 24 25  2  0  0  0
 24 27  1  0  0  0
 25 26  1  0  0  0
 25 51  1  0  0  0
 26 52  1  0  0  0
 29 30  1  0  0  0
 30 31  1  0  0  0
 30 35  1  0  0  0
 30 32  1  0  0  0
 32 33  1  0  0  0
 32 53  1  0  0  0
 32 54  1  0  0  0
 33 34  1  0  0  0
 33 55  1  0  0  0
 33 56  1  0  0  0
 34 35  1  0  0  0
 35 57  1  0  0  0
 35 58  1  0  0  0
M  CHG  2   8   1   9  -1
M  END
> <s_m_source_file>
/cbio/jclab/home/andrrizzi/epik_inhibitors/output/Afatinib/Afatinib-input.mol2

> <i_m_source_file_index>
1

> <r_epik_Ionization_Penalty>
  1.7305

> <r_epik_Ionization_Penalty_Charging>
  0.0112

> <r_epik_Ionization_Penalty_Neutral>
  1.7193

> <r_epik_State_Penalty>
  2.3342

> <i_epik_Tot_Q>
0

$$$$
