@<TRIPOS>MOLECULE
[4-(3-chloro-4-fluoro-anilino)-7-[(3~{S})-tetrahydrofuran-3-yl]oxy-quinazolin-6-yl]-[(~{E})-4-(dimethylammonio)-1-oxoniumylidene-but-2-enyl]azanide
   60    63     0     0     0
SMALL
USER_CHARGES

@<TRIPOS>ATOM
      1 C1         -7.4188    0.8604   -6.3235 C.3       1 <0>         0.0824
      2 N1         -6.9541    2.2345   -6.5099 N.4       1 <0>        -0.6847
      3 C2         -6.9103    2.5707   -7.9324 C.3       1 <0>         0.0824
      4 C3         -5.6397    2.4150   -5.9024 C.3       1 <0>         0.1573
      5 C4         -5.7409    2.6137   -4.4194 C.2       1 <0>        -0.2392
      6 C5         -5.1622    1.7967   -3.5279 C.2       1 <0>        -0.0340
      7 C6         -5.2942    2.0572   -2.0634 C.2       1 <0>         0.4532
      8 O1         -5.9296    3.0166   -1.6425 O.3       1 <0>        -0.7361
      9 N2         -4.6206    1.0931   -1.3249 N.2       1 <0>        -0.2128
     10 C7         -4.5211    1.0077    0.0654 C.ar      1 <0>        -0.0762
     11 C8         -3.8067   -0.0223    0.6671 C.ar      1 <0>         0.1396
     12 C9         -3.7167   -0.0923    2.0604 C.ar      1 <0>        -0.2153
     13 C10        -4.3304    0.8528    2.8788 C.ar      1 <0>         0.4622
     14 C11        -5.0493    1.8882    2.2594 C.ar      1 <0>        -0.3037
     15 C12        -5.1444    1.9655    0.8590 C.ar      1 <0>        -0.0802
     16 C13        -5.6484    2.8133    3.1098 C.ar      1 <0>         0.7134
     17 N3         -5.5709    2.7595    4.4528 N.ar      1 <0>        -0.7456
     18 C14        -4.8583    1.7271    4.9314 C.ar      1 <0>         0.6850
     19 N4         -4.2328    0.7694    4.2172 N.ar      1 <0>        -0.7063
     20 N5         -6.3900    3.8870    2.5575 N.pl3     1 <0>        -0.7529
     21 C15        -7.4938    4.6164    3.0274 C.ar      1 <0>         0.1492
     22 C16        -8.4247    4.0083    3.8697 C.ar      1 <0>        -0.1547
     23 C17        -9.5202    4.7338    4.3377 C.ar      1 <0>         0.0016
     24 C18        -9.6849    6.0674    3.9635 C.ar      1 <0>         0.1228
     25 C19        -8.7541    6.6754    3.1212 C.ar      1 <0>        -0.1336
     26 C20        -7.6586    5.9499    2.6531 C.ar      1 <0>        -0.1096
     27 F1        -10.7338    6.7771    4.4037 F         1 <0>        -0.1173
     28 Cl1       -10.6673    3.9767    5.3744 Cl        1 <0>        -0.0590
     29 O2         -3.1859   -0.9762   -0.0835 O.3       1 <0>        -0.3494
     30 C21        -3.5949   -2.3246    0.1184 C.3       1 <0>         0.1169
     31 H1         -4.3940   -2.2591    0.8715 H         1 <0>         0.0841
     32 C22        -4.0074   -2.9414   -1.1956 C.3       1 <0>        -0.1249
     33 C23        -2.6699   -3.2975   -1.8133 C.3       1 <0>         0.1301
     34 O3         -1.7744   -3.5828   -0.7302 O.3       1 <0>        -0.4154
     35 C24        -2.3865   -3.1549    0.4988 C.3       1 <0>         0.1087
     36 H2         -7.4455    0.6249   -5.2493 H         1 <0>         0.1066
     37 H3         -6.7321    0.1688   -6.8335 H         1 <0>         0.1066
     38 H4         -8.4282    0.7540   -6.7474 H         1 <0>         0.1066
     39 H5         -6.5592    3.6061   -8.0538 H         1 <0>         0.1066
     40 H6         -7.9174    2.4721   -8.3636 H         1 <0>         0.1066
     41 H7         -6.2213    1.8868   -8.4497 H         1 <0>         0.1066
     42 H8         -5.0225    1.5245   -6.0925 H         1 <0>         0.1073
     43 H9         -5.1522    3.2991   -6.3391 H         1 <0>         0.1073
     44 H10        -6.3244    3.4798   -4.0739 H         1 <0>         0.1758
     45 H11        -4.5847    0.9265   -3.8732 H         1 <0>         0.1668
     46 H12        -3.1533   -0.9064    2.5138 H         1 <0>         0.1731
     47 H13        -5.7007    2.7665    0.3765 H         1 <0>         0.1436
     48 H14        -4.7758    1.6541    6.0091 H         1 <0>         0.0687
     49 H15        -6.1189    4.2930    1.5718 H         1 <0>         0.4424
     50 H16        -8.2928    2.9682    4.1603 H         1 <0>         0.1480
     51 H17        -8.8806    7.7144    2.8314 H         1 <0>         0.1624
     52 H18        -6.9388    6.4340    1.9978 H         1 <0>         0.1584
     53 H19        -4.6409   -3.8203   -1.0052 H         1 <0>         0.0710
     54 H20        -4.5711   -2.2040   -1.7859 H         1 <0>         0.0710
     55 H21        -2.7887   -4.1771   -2.4631 H         1 <0>         0.0438
     56 H22        -2.3034   -2.4485   -2.4090 H         1 <0>         0.0438
     57 H23        -1.6906   -2.5406    1.0890 H         1 <0>         0.0681
     58 H24        -2.7094   -4.0199    1.0966 H         1 <0>         0.0681
     59 H25        -6.0132    3.1884   -0.5592 H         1 <0>         0.4513
     60 H26        -7.6618    2.9136   -6.0120 H         1 <0>         0.4513
@<TRIPOS>BOND
     1    1    2 1
     2    1   36 1
     3    1   37 1
     4    1   38 1
     5    2    3 1
     6    2    4 1
     7    2   60 1
     8    3   39 1
     9    3   40 1
    10    3   41 1
    11    4    5 1
    12    4   42 1
    13    4   43 1
    14    5    6 2
    15    5   44 1
    16    6    7 1
    17    6   45 1
    18    7    8 2
    19    7    9 1
    20    8   59 1
    21    9   10 1
    22   10   15 ar
    23   10   11 ar
    24   11   12 ar
    25   11   29 1
    26   12   13 ar
    27   12   46 1
    28   13   19 ar
    29   13   14 ar
    30   14   15 ar
    31   14   16 ar
    32   15   47 1
    33   16   17 ar
    34   16   20 1
    35   17   18 ar
    36   18   19 ar
    37   18   48 1
    38   20   21 1
    39   20   49 1
    40   21   26 ar
    41   21   22 ar
    42   22   23 ar
    43   22   50 1
    44   23   24 ar
    45   23   28 1
    46   24   25 ar
    47   24   27 1
    48   25   26 ar
    49   25   51 1
    50   26   52 1
    51   29   30 1
    52   30   31 1
    53   30   35 1
    54   30   32 1
    55   32   33 1
    56   32   53 1
    57   32   54 1
    58   33   34 1
    59   33   55 1
    60   33   56 1
    61   34   35 1
    62   35   57 1
    63   35   58 1
@<TRIPOS>MOLECULE
[(~{E})-4-[[4-(3-chloro-4-fluoro-anilino)-7-[(3~{S})-tetrahydrofuran-3-yl]oxy-quinazolin-6-yl]amino]-4-oxo-but-2-enyl]-dimethyl-ammonium
   60    63     0     0     0
SMALL
USER_CHARGES

@<TRIPOS>ATOM
      1 C1         -7.4188    0.8604   -6.3235 C.3       1 <0>         0.0793
      2 N1         -6.9541    2.2345   -6.5099 N.4       1 <0>        -0.6778
      3 C2         -6.9103    2.5707   -7.9324 C.3       1 <0>         0.0793
      4 C3         -5.6397    2.4150   -5.9024 C.3       1 <0>         0.1442
      5 C4         -5.7409    2.6137   -4.4194 C.2       1 <0>        -0.1996
      6 C5         -5.1622    1.7967   -3.5279 C.2       1 <0>        -0.1348
      7 C6         -5.2942    2.0572   -2.0634 C.2       1 <0>         0.6478
      8 O1         -5.9296    3.0166   -1.6425 O.2       1 <0>        -0.5896
      9 N2         -4.6206    1.0931   -1.3249 N.am      1 <0>        -0.4331
     10 C7         -4.5211    1.0077    0.0654 C.ar      1 <0>         0.0155
     11 C8         -3.8067   -0.0223    0.6671 C.ar      1 <0>         0.1023
     12 C9         -3.7167   -0.0923    2.0604 C.ar      1 <0>        -0.1950
     13 C10        -4.3304    0.8528    2.8788 C.ar      1 <0>         0.4512
     14 C11        -5.0493    1.8882    2.2594 C.ar      1 <0>        -0.2959
     15 C12        -5.1444    1.9655    0.8590 C.ar      1 <0>        -0.0993
     16 C13        -5.6484    2.8133    3.1098 C.ar      1 <0>         0.7192
     17 N3         -5.5709    2.7595    4.4528 N.ar      1 <0>        -0.7486
     18 C14        -4.8583    1.7271    4.9314 C.ar      1 <0>         0.6827
     19 N4         -4.2328    0.7694    4.2172 N.ar      1 <0>        -0.7092
     20 N5         -6.3900    3.8870    2.5575 N.pl3     1 <0>        -0.7573
     21 C15        -7.4938    4.6164    3.0274 C.ar      1 <0>         0.1557
     22 C16        -8.4247    4.0083    3.8697 C.ar      1 <0>        -0.1526
     23 C17        -9.5202    4.7338    4.3377 C.ar      1 <0>         0.0003
     24 C18        -9.6849    6.0674    3.9635 C.ar      1 <0>         0.1200
     25 C19        -8.7541    6.6754    3.1212 C.ar      1 <0>        -0.1332
     26 C20        -7.6586    5.9499    2.6531 C.ar      1 <0>        -0.1133
     27 F1        -10.7338    6.7771    4.4037 F         1 <0>        -0.1192
     28 Cl1       -10.6673    3.9767    5.3744 Cl        1 <0>        -0.0620
     29 O2         -3.1859   -0.9762   -0.0835 O.3       1 <0>        -0.3590
     30 C21        -3.5949   -2.3246    0.1184 C.3       1 <0>         0.1114
     31 H1         -4.3940   -2.2591    0.8715 H         1 <0>         0.0820
     32 C22        -4.0074   -2.9414   -1.1956 C.3       1 <0>        -0.1225
     33 C23        -2.6699   -3.2975   -1.8133 C.3       1 <0>         0.1272
     34 O3         -1.7744   -3.5828   -0.7302 O.3       1 <0>        -0.4098
     35 C24        -2.3865   -3.1549    0.4988 C.3       1 <0>         0.1083
     36 H2         -7.4455    0.6249   -5.2493 H         1 <0>         0.1078
     37 H3         -6.7321    0.1688   -6.8335 H         1 <0>         0.1078
     38 H4         -8.4282    0.7540   -6.7474 H         1 <0>         0.1078
     39 H5         -6.5592    3.6061   -8.0538 H         1 <0>         0.1078
     40 H6         -7.9174    2.4721   -8.3636 H         1 <0>         0.1078
     41 H7         -6.2213    1.8868   -8.4497 H         1 <0>         0.1078
     42 H8         -5.0225    1.5245   -6.0925 H         1 <0>         0.1106
     43 H9         -5.1522    3.2991   -6.3391 H         1 <0>         0.1106
     44 H10        -6.3244    3.4798   -4.0739 H         1 <0>         0.1830
     45 H11        -4.5847    0.9265   -3.8732 H         1 <0>         0.1430
     46 H12        -4.0868    0.2801   -1.8388 H         1 <0>         0.3396
     47 H13        -3.1533   -0.9064    2.5138 H         1 <0>         0.1734
     48 H14        -5.7007    2.7665    0.3765 H         1 <0>         0.1703
     49 H15        -4.7758    1.6541    6.0091 H         1 <0>         0.0675
     50 H16        -6.1189    4.2930    1.5718 H         1 <0>         0.4539
     51 H17        -8.2928    2.9682    4.1603 H         1 <0>         0.1493
     52 H18        -8.8806    7.7144    2.8314 H         1 <0>         0.1621
     53 H19        -6.9388    6.4340    1.9978 H         1 <0>         0.1594
     54 H20        -4.6409   -3.8203   -1.0052 H         1 <0>         0.0578
     55 H21        -4.5711   -2.2040   -1.7859 H         1 <0>         0.0578
     56 H22        -2.7887   -4.1771   -2.4631 H         1 <0>         0.0520
     57 H23        -2.3034   -2.4485   -2.4090 H         1 <0>         0.0520
     58 H24        -1.6906   -2.5406    1.0890 H         1 <0>         0.0715
     59 H25        -2.7094   -4.0199    1.0966 H         1 <0>         0.0715
     60 H26        -7.6618    2.9136   -6.0120 H         1 <0>         0.4535
@<TRIPOS>BOND
     1    1    2 1
     2    1   36 1
     3    1   37 1
     4    1   38 1
     5    2    3 1
     6    2    4 1
     7    2   60 1
     8    3   39 1
     9    3   40 1
    10    3   41 1
    11    4    5 1
    12    4   42 1
    13    4   43 1
    14    5    6 2
    15    5   44 1
    16    6    7 1
    17    6   45 1
    18    7    8 2
    19    7    9 am
    20    9   10 1
    21    9   46 1
    22   10   15 ar
    23   10   11 ar
    24   11   12 ar
    25   11   29 1
    26   12   13 ar
    27   12   47 1
    28   13   19 ar
    29   13   14 ar
    30   14   15 ar
    31   14   16 ar
    32   15   48 1
    33   16   17 ar
    34   16   20 1
    35   17   18 ar
    36   18   19 ar
    37   18   49 1
    38   20   21 1
    39   20   50 1
    40   21   26 ar
    41   21   22 ar
    42   22   23 ar
    43   22   51 1
    44   23   24 ar
    45   23   28 1
    46   24   25 ar
    47   24   27 1
    48   25   26 ar
    49   25   52 1
    50   26   53 1
    51   29   30 1
    52   30   31 1
    53   30   35 1
    54   30   32 1
    55   32   33 1
    56   32   54 1
    57   32   55 1
    58   33   34 1
    59   33   56 1
    60   33   57 1
    61   34   35 1
    62   35   58 1
    63   35   59 1
@<TRIPOS>MOLECULE
(~{E})-~{N}-[4-(3-chloro-4-fluoro-anilino)-7-[(3~{S})-tetrahydrofuran-3-yl]oxy-quinazolin-6-yl]-4-(dimethylamino)but-2-enamide
   59    62     0     0     0
SMALL
USER_CHARGES

@<TRIPOS>ATOM
      1 C1         -7.4188    0.8604   -6.3235 C.3       1 <0>         0.1422
      2 N1         -6.9541    2.2345   -6.5099 N.3       1 <0>        -0.7108
      3 C2         -6.9103    2.5707   -7.9324 C.3       1 <0>         0.1422
      4 C3         -5.6397    2.4150   -5.9024 C.3       1 <0>         0.1681
      5 C4         -5.7409    2.6137   -4.4194 C.2       1 <0>        -0.0618
      6 C5         -5.1622    1.7967   -3.5279 C.2       1 <0>        -0.2549
      7 C6         -5.2942    2.0572   -2.0634 C.2       1 <0>         0.6656
      8 O1         -5.9296    3.0166   -1.6425 O.2       1 <0>        -0.5999
      9 N2         -4.6206    1.0931   -1.3249 N.am      1 <0>        -0.4645
     10 C7         -4.5211    1.0077    0.0654 C.ar      1 <0>         0.0474
     11 C8         -3.8067   -0.0223    0.6671 C.ar      1 <0>         0.0972
     12 C9         -3.7167   -0.0923    2.0604 C.ar      1 <0>        -0.2025
     13 C10        -4.3304    0.8528    2.8788 C.ar      1 <0>         0.4355
     14 C11        -5.0493    1.8882    2.2594 C.ar      1 <0>        -0.2820
     15 C12        -5.1444    1.9655    0.8590 C.ar      1 <0>        -0.1131
     16 C13        -5.6484    2.8133    3.1098 C.ar      1 <0>         0.6989
     17 N3         -5.5709    2.7595    4.4528 N.ar      1 <0>        -0.7577
     18 C14        -4.8583    1.7271    4.9314 C.ar      1 <0>         0.6698
     19 N4         -4.2328    0.7694    4.2172 N.ar      1 <0>        -0.7103
     20 N5         -6.3900    3.8870    2.5575 N.pl3     1 <0>        -0.7234
     21 C15        -7.4938    4.6164    3.0274 C.ar      1 <0>         0.1188
     22 C16        -8.4247    4.0083    3.8697 C.ar      1 <0>        -0.0783
     23 C17        -9.5202    4.7338    4.3377 C.ar      1 <0>        -0.0151
     24 C18        -9.6849    6.0674    3.9635 C.ar      1 <0>         0.1261
     25 C19        -8.7541    6.6754    3.1212 C.ar      1 <0>        -0.1467
     26 C20        -7.6586    5.9499    2.6531 C.ar      1 <0>        -0.1379
     27 F1        -10.7338    6.7771    4.4037 F         1 <0>        -0.1254
     28 Cl1       -10.6673    3.9767    5.3744 Cl        1 <0>        -0.0625
     29 O2         -3.1859   -0.9762   -0.0835 O.3       1 <0>        -0.3544
     30 C21        -3.5949   -2.3246    0.1184 C.3       1 <0>         0.1148
     31 H1         -4.3940   -2.2591    0.8715 H         1 <0>         0.0801
     32 C22        -4.0074   -2.9414   -1.1956 C.3       1 <0>        -0.1237
     33 C23        -2.6699   -3.2975   -1.8133 C.3       1 <0>         0.1275
     34 O3         -1.7744   -3.5828   -0.7302 O.3       1 <0>        -0.4189
     35 C24        -2.3865   -3.1549    0.4988 C.3       1 <0>         0.1091
     36 H2         -7.4455    0.6249   -5.2493 H         1 <0>         0.0361
     37 H3         -6.7321    0.1688   -6.8335 H         1 <0>         0.0361
     38 H4         -8.4282    0.7540   -6.7474 H         1 <0>         0.0361
     39 H5         -6.5592    3.6061   -8.0538 H         1 <0>         0.0361
     40 H6         -7.9174    2.4721   -8.3636 H         1 <0>         0.0361
     41 H7         -6.2213    1.8868   -8.4497 H         1 <0>         0.0361
     42 H8         -5.0225    1.5245   -6.0925 H         1 <0>         0.0465
     43 H9         -5.1522    3.2991   -6.3391 H         1 <0>         0.0465
     44 H10        -6.3244    3.4798   -4.0739 H         1 <0>         0.1597
     45 H11        -4.5847    0.9265   -3.8732 H         1 <0>         0.1401
     46 H12        -4.0868    0.2801   -1.8388 H         1 <0>         0.3354
     47 H13        -3.1533   -0.9064    2.5138 H         1 <0>         0.1635
     48 H14        -5.7007    2.7665    0.3765 H         1 <0>         0.1623
     49 H15        -4.7758    1.6541    6.0091 H         1 <0>         0.0555
     50 H16        -6.1189    4.2930    1.5718 H         1 <0>         0.4375
     51 H17        -8.2928    2.9682    4.1603 H         1 <0>         0.1773
     52 H18        -8.8806    7.7144    2.8314 H         1 <0>         0.1553
     53 H19        -6.9388    6.4340    1.9978 H         1 <0>         0.1429
     54 H20        -4.6409   -3.8203   -1.0052 H         1 <0>         0.0663
     55 H21        -4.5711   -2.2040   -1.7859 H         1 <0>         0.0663
     56 H22        -2.7887   -4.1771   -2.4631 H         1 <0>         0.0514
     57 H23        -2.3034   -2.4485   -2.4090 H         1 <0>         0.0514
     58 H24        -1.6906   -2.5406    1.0890 H         1 <0>         0.0630
     59 H25        -2.7094   -4.0199    1.0966 H         1 <0>         0.0630
@<TRIPOS>BOND
     1    1    2 1
     2    1   36 1
     3    1   37 1
     4    1   38 1
     5    2    3 1
     6    2    4 1
     7    3   39 1
     8    3   40 1
     9    3   41 1
    10    4    5 1
    11    4   42 1
    12    4   43 1
    13    5    6 2
    14    5   44 1
    15    6    7 1
    16    6   45 1
    17    7    8 2
    18    7    9 am
    19    9   10 1
    20    9   46 1
    21   10   15 ar
    22   10   11 ar
    23   11   12 ar
    24   11   29 1
    25   12   13 ar
    26   12   47 1
    27   13   19 ar
    28   13   14 ar
    29   14   15 ar
    30   14   16 ar
    31   15   48 1
    32   16   17 ar
    33   16   20 1
    34   17   18 ar
    35   18   19 ar
    36   18   49 1
    37   20   21 1
    38   20   50 1
    39   21   26 ar
    40   21   22 ar
    41   22   23 ar
    42   22   51 1
    43   23   24 ar
    44   23   28 1
    45   24   25 ar
    46   24   27 1
    47   25   26 ar
    48   25   52 1
    49   26   53 1
    50   29   30 1
    51   30   31 1
    52   30   35 1
    53   30   32 1
    54   32   33 1
    55   32   54 1
    56   32   55 1
    57   33   34 1
    58   33   56 1
    59   33   57 1
    60   34   35 1
    61   35   58 1
    62   35   59 1
@<TRIPOS>MOLECULE
[4-(3-chloro-4-fluoro-anilino)-7-[(3~{S})-tetrahydrofuran-3-yl]oxy-quinazolin-6-yl]-[(~{E})-4-(dimethylamino)-1-oxoniumylidene-but-2-enyl]azanide
   59    62     0     0     0
SMALL
USER_CHARGES

@<TRIPOS>ATOM
      1 C1         -7.4188    0.8604   -6.3235 C.3       1 <0>         0.1516
      2 N1         -6.9541    2.2345   -6.5099 N.3       1 <0>        -0.7249
      3 C2         -6.9103    2.5707   -7.9324 C.3       1 <0>         0.1516
      4 C3         -5.6397    2.4150   -5.9024 C.3       1 <0>         0.1785
      5 C4         -5.7409    2.6137   -4.4194 C.2       1 <0>        -0.0856
      6 C5         -5.1622    1.7967   -3.5279 C.2       1 <0>        -0.1733
      7 C6         -5.2942    2.0572   -2.0634 C.2       1 <0>         0.5094
      8 O1         -5.9296    3.0166   -1.6425 O.3       1 <0>        -0.7313
      9 N2         -4.6206    1.0931   -1.3249 N.2       1 <0>        -0.2777
     10 C7         -4.5211    1.0077    0.0654 C.ar      1 <0>        -0.0296
     11 C8         -3.8067   -0.0223    0.6671 C.ar      1 <0>         0.1250
     12 C9         -3.7167   -0.0923    2.0604 C.ar      1 <0>        -0.2145
     13 C10        -4.3304    0.8528    2.8788 C.ar      1 <0>         0.4382
     14 C11        -5.0493    1.8882    2.2594 C.ar      1 <0>        -0.2830
     15 C12        -5.1444    1.9655    0.8590 C.ar      1 <0>        -0.1043
     16 C13        -5.6484    2.8133    3.1098 C.ar      1 <0>         0.7001
     17 N3         -5.5709    2.7595    4.4528 N.ar      1 <0>        -0.7518
     18 C14        -4.8583    1.7271    4.9314 C.ar      1 <0>         0.6646
     19 N4         -4.2328    0.7694    4.2172 N.ar      1 <0>        -0.7022
     20 N5         -6.3900    3.8870    2.5575 N.pl3     1 <0>        -0.7524
     21 C15        -7.4938    4.6164    3.0274 C.ar      1 <0>         0.1616
     22 C16        -8.4247    4.0083    3.8697 C.ar      1 <0>        -0.1605
     23 C17        -9.5202    4.7338    4.3377 C.ar      1 <0>         0.0054
     24 C18        -9.6849    6.0674    3.9635 C.ar      1 <0>         0.1088
     25 C19        -8.7541    6.6754    3.1212 C.ar      1 <0>        -0.1331
     26 C20        -7.6586    5.9499    2.6531 C.ar      1 <0>        -0.1141
     27 F1        -10.7338    6.7771    4.4037 F         1 <0>        -0.1260
     28 Cl1       -10.6673    3.9767    5.3744 Cl        1 <0>        -0.0673
     29 O2         -3.1859   -0.9762   -0.0835 O.3       1 <0>        -0.3400
     30 C21        -3.5949   -2.3246    0.1184 C.3       1 <0>         0.1171
     31 H1         -4.3940   -2.2591    0.8715 H         1 <0>         0.0743
     32 C22        -4.0074   -2.9414   -1.1956 C.3       1 <0>        -0.1255
     33 C23        -2.6699   -3.2975   -1.8133 C.3       1 <0>         0.1271
     34 O3         -1.7744   -3.5828   -0.7302 O.3       1 <0>        -0.4211
     35 C24        -2.3865   -3.1549    0.4988 C.3       1 <0>         0.1095
     36 H2         -7.4455    0.6249   -5.2493 H         1 <0>         0.0348
     37 H3         -6.7321    0.1688   -6.8335 H         1 <0>         0.0348
     38 H4         -8.4282    0.7540   -6.7474 H         1 <0>         0.0348
     39 H5         -6.5592    3.6061   -8.0538 H         1 <0>         0.0348
     40 H6         -7.9174    2.4721   -8.3636 H         1 <0>         0.0348
     41 H7         -6.2213    1.8868   -8.4497 H         1 <0>         0.0348
     42 H8         -5.0225    1.5245   -6.0925 H         1 <0>         0.0426
     43 H9         -5.1522    3.2991   -6.3391 H         1 <0>         0.0426
     44 H10        -6.3244    3.4798   -4.0739 H         1 <0>         0.1569
     45 H11        -4.5847    0.9265   -3.8732 H         1 <0>         0.1561
     46 H12        -3.1533   -0.9064    2.5138 H         1 <0>         0.1660
     47 H13        -5.7007    2.7665    0.3765 H         1 <0>         0.1485
     48 H14        -4.7758    1.6541    6.0091 H         1 <0>         0.0582
     49 H15        -6.1189    4.2930    1.5718 H         1 <0>         0.4457
     50 H16        -8.2928    2.9682    4.1603 H         1 <0>         0.1500
     51 H17        -8.8806    7.7144    2.8314 H         1 <0>         0.1567
     52 H18        -6.9388    6.4340    1.9978 H         1 <0>         0.1580
     53 H19        -4.6409   -3.8203   -1.0052 H         1 <0>         0.0730
     54 H20        -4.5711   -2.2040   -1.7859 H         1 <0>         0.0730
     55 H21        -2.7887   -4.1771   -2.4631 H         1 <0>         0.0521
     56 H22        -2.3034   -2.4485   -2.4090 H         1 <0>         0.0521
     57 H23        -1.6906   -2.5406    1.0890 H         1 <0>         0.0610
     58 H24        -2.7094   -4.0199    1.0966 H         1 <0>         0.0610
     59 H25        -6.0132    3.1884   -0.5592 H         1 <0>         0.4323
@<TRIPOS>BOND
     1    1    2 1
     2    1   36 1
     3    1   37 1
     4    1   38 1
     5    2    3 1
     6    2    4 1
     7    3   39 1
     8    3   40 1
     9    3   41 1
    10    4    5 1
    11    4   42 1
    12    4   43 1
    13    5    6 2
    14    5   44 1
    15    6    7 1
    16    6   45 1
    17    7    8 2
    18    7    9 1
    19    8   59 1
    20    9   10 1
    21   10   15 ar
    22   10   11 ar
    23   11   12 ar
    24   11   29 1
    25   12   13 ar
    26   12   46 1
    27   13   19 ar
    28   13   14 ar
    29   14   15 ar
    30   14   16 ar
    31   15   47 1
    32   16   17 ar
    33   16   20 1
    34   17   18 ar
    35   18   19 ar
    36   18   48 1
    37   20   21 1
    38   20   49 1
    39   21   26 ar
    40   21   22 ar
    41   22   23 ar
    42   22   50 1
    43   23   24 ar
    44   23   28 1
    45   24   25 ar
    46   24   27 1
    47   25   26 ar
    48   25   51 1
    49   26   52 1
    50   29   30 1
    51   30   31 1
    52   30   35 1
    53   30   32 1
    54   32   33 1
    55   32   53 1
    56   32   54 1
    57   33   34 1
    58   33   55 1
    59   33   56 1
    60   34   35 1
    61   35   57 1
    62   35   58 1
@<TRIPOS>MOLECULE
[4-(3-chloro-4-fluoro-anilino)-7-[(3~{S})-tetrahydrofuran-3-yl]oxy-quinazolin-1-ium-6-yl]-[(~{E})-4-(dimethylammonio)-1-oxoniumylidene-but-2-enyl]azanide
   61    64     0     0     0
SMALL
USER_CHARGES

@<TRIPOS>ATOM
      1 C1         -7.4188    0.8604   -6.3235 C.3       1 <0>         0.0789
      2 N1         -6.9541    2.2345   -6.5099 N.4       1 <0>        -0.6786
      3 C2         -6.9103    2.5707   -7.9324 C.3       1 <0>         0.0789
      4 C3         -5.6397    2.4150   -5.9024 C.3       1 <0>         0.1432
      5 C4         -5.7409    2.6137   -4.4194 C.2       1 <0>        -0.2007
      6 C5         -5.1622    1.7967   -3.5279 C.2       1 <0>        -0.0628
      7 C6         -5.2942    2.0572   -2.0634 C.2       1 <0>         0.5077
      8 O1         -5.9296    3.0166   -1.6425 O.3       1 <0>        -0.7162
      9 N2         -4.6206    1.0931   -1.3249 N.2       1 <0>        -0.2585
     10 C7         -4.5211    1.0077    0.0654 C.ar      1 <0>        -0.0364
     11 C8         -3.8067   -0.0223    0.6671 C.ar      1 <0>         0.1852
     12 C9         -3.7167   -0.0923    2.0604 C.ar      1 <0>        -0.2009
     13 C10        -4.3304    0.8528    2.8788 C.ar      1 <0>         0.0883
     14 C11        -5.0493    1.8882    2.2594 C.ar      1 <0>        -0.2387
     15 C12        -5.1444    1.9655    0.8590 C.ar      1 <0>        -0.0615
     16 C13        -5.6484    2.8133    3.1098 C.ar      1 <0>         0.7762
     17 N3         -5.5709    2.7595    4.4528 N.ar      1 <0>        -0.7351
     18 C14        -4.8583    1.7271    4.9314 C.ar      1 <0>         0.6392
     19 N4         -4.2328    0.7694    4.2172 N.ar      1 <0>        -0.3390
     20 N5         -6.3900    3.8870    2.5575 N.pl3     1 <0>        -0.6336
     21 C15        -7.4938    4.6164    3.0274 C.ar      1 <0>         0.0540
     22 C16        -8.4247    4.0083    3.8697 C.ar      1 <0>        -0.0994
     23 C17        -9.5202    4.7338    4.3377 C.ar      1 <0>        -0.0160
     24 C18        -9.6849    6.0674    3.9635 C.ar      1 <0>         0.1827
     25 C19        -8.7541    6.6754    3.1212 C.ar      1 <0>        -0.1467
     26 C20        -7.6586    5.9499    2.6531 C.ar      1 <0>        -0.0794
     27 F1        -10.7338    6.7771    4.4037 F         1 <0>        -0.0891
     28 Cl1       -10.6673    3.9767    5.3744 Cl        1 <0>        -0.0077
     29 O2         -3.1859   -0.9762   -0.0835 O.3       1 <0>        -0.3400
     30 C21        -3.5949   -2.3246    0.1184 C.3       1 <0>         0.1137
     31 H1         -4.3940   -2.2591    0.8715 H         1 <0>         0.0677
     32 C22        -4.0074   -2.9414   -1.1956 C.3       1 <0>        -0.1482
     33 C23        -2.6699   -3.2975   -1.8133 C.3       1 <0>         0.1258
     34 O3         -1.7744   -3.5828   -0.7302 O.3       1 <0>        -0.4092
     35 C24        -2.3865   -3.1549    0.4988 C.3       1 <0>         0.1286
     36 H2         -7.4455    0.6249   -5.2493 H         1 <0>         0.1095
     37 H3         -6.7321    0.1688   -6.8335 H         1 <0>         0.1095
     38 H4         -8.4282    0.7540   -6.7474 H         1 <0>         0.1095
     39 H5         -6.5592    3.6061   -8.0538 H         1 <0>         0.1095
     40 H6         -7.9174    2.4721   -8.3636 H         1 <0>         0.1095
     41 H7         -6.2213    1.8868   -8.4497 H         1 <0>         0.1095
     42 H8         -5.0225    1.5245   -6.0925 H         1 <0>         0.1163
     43 H9         -5.1522    3.2991   -6.3391 H         1 <0>         0.1163
     44 H10        -6.3244    3.4798   -4.0739 H         1 <0>         0.1780
     45 H11        -4.5847    0.9265   -3.8732 H         1 <0>         0.1731
     46 H12        -3.1533   -0.9064    2.5138 H         1 <0>         0.1793
     47 H13        -5.7007    2.7665    0.3765 H         1 <0>         0.1613
     48 H14        -4.7758    1.6541    6.0091 H         1 <0>         0.1044
     49 H15        -6.1189    4.2930    1.5718 H         1 <0>         0.4727
     50 H16        -8.2928    2.9682    4.1603 H         1 <0>         0.1652
     51 H17        -8.8806    7.7144    2.8314 H         1 <0>         0.1801
     52 H18        -6.9388    6.4340    1.9978 H         1 <0>         0.1543
     53 H19        -4.6409   -3.8203   -1.0052 H         1 <0>         0.0734
     54 H20        -4.5711   -2.2040   -1.7859 H         1 <0>         0.0734
     55 H21        -2.7887   -4.1771   -2.4631 H         1 <0>         0.0705
     56 H22        -2.3034   -2.4485   -2.4090 H         1 <0>         0.0705
     57 H23        -1.6906   -2.5406    1.0890 H         1 <0>         0.0695
     58 H24        -2.7094   -4.0199    1.0966 H         1 <0>         0.0695
     59 H25        -6.0132    3.1884   -0.5592 H         1 <0>         0.4473
     60 H26        -7.6618    2.9136   -6.0120 H         1 <0>         0.4552
     61 H27        -3.6634   -0.0518    4.6770 H         1 <0>         0.3401
@<TRIPOS>BOND
     1    1    2 1
     2    1   36 1
     3    1   37 1
     4    1   38 1
     5    2    3 1
     6    2    4 1
     7    2   60 1
     8    3   39 1
     9    3   40 1
    10    3   41 1
    11    4    5 1
    12    4   42 1
    13    4   43 1
    14    5    6 2
    15    5   44 1
    16    6    7 1
    17    6   45 1
    18    7    8 2
    19    7    9 1
    20    8   59 1
    21    9   10 1
    22   10   15 ar
    23   10   11 ar
    24   11   12 ar
    25   11   29 1
    26   12   13 ar
    27   12   46 1
    28   13   19 ar
    29   13   14 ar
    30   14   15 ar
    31   14   16 ar
    32   15   47 1
    33   16   17 ar
    34   16   20 1
    35   17   18 ar
    36   18   19 ar
    37   18   48 1
    38   19   61 1
    39   20   21 1
    40   20   49 1
    41   21   26 ar
    42   21   22 ar
    43   22   23 ar
    44   22   50 1
    45   23   24 ar
    46   23   28 1
    47   24   25 ar
    48   24   27 1
    49   25   26 ar
    50   25   51 1
    51   26   52 1
    52   29   30 1
    53   30   31 1
    54   30   35 1
    55   30   32 1
    56   32   33 1
    57   32   53 1
    58   32   54 1
    59   33   34 1
    60   33   55 1
    61   33   56 1
    62   34   35 1
    63   35   57 1
    64   35   58 1
@<TRIPOS>MOLECULE
[(~{E})-1-[[4-(3-chloro-4-fluoro-anilino)-7-[(3~{S})-tetrahydrofuran-3-yl]oxy-quinazolin-6-yl]amino]-4-(dimethylamino)but-2-enylidene]oxonium
   60    63     0     0     0
SMALL
USER_CHARGES

@<TRIPOS>ATOM
      1 C1         -7.4188    0.8604   -6.3235 C.3       1 <0>         0.1342
      2 N1         -6.9541    2.2345   -6.5099 N.3       1 <0>        -0.7073
      3 C2         -6.9103    2.5707   -7.9324 C.3       1 <0>         0.1342
      4 C3         -5.6397    2.4150   -5.9024 C.3       1 <0>         0.1507
      5 C4         -5.7409    2.6137   -4.4194 C.2       1 <0>         0.0208
      6 C5         -5.1622    1.7967   -3.5279 C.2       1 <0>        -0.3040
      7 C6         -5.2942    2.0572   -2.0634 C.2       1 <0>         0.6236
      8 O1         -5.9296    3.0166   -1.6425 O.3       1 <0>        -0.6624
      9 N2         -4.6206    1.0931   -1.3249 N.am      1 <0>        -0.2527
     10 C7         -4.5211    1.0077    0.0654 C.ar      1 <0>        -0.0781
     11 C8         -3.8067   -0.0223    0.6671 C.ar      1 <0>         0.1408
     12 C9         -3.7167   -0.0923    2.0604 C.ar      1 <0>        -0.2003
     13 C10        -4.3304    0.8528    2.8788 C.ar      1 <0>         0.4872
     14 C11        -5.0493    1.8882    2.2594 C.ar      1 <0>        -0.3185
     15 C12        -5.1444    1.9655    0.8590 C.ar      1 <0>        -0.0271
     16 C13        -5.6484    2.8133    3.1098 C.ar      1 <0>         0.7206
     17 N3         -5.5709    2.7595    4.4528 N.ar      1 <0>        -0.7373
     18 C14        -4.8583    1.7271    4.9314 C.ar      1 <0>         0.7087
     19 N4         -4.2328    0.7694    4.2172 N.ar      1 <0>        -0.7055
     20 N5         -6.3900    3.8870    2.5575 N.pl3     1 <0>        -0.7433
     21 C15        -7.4938    4.6164    3.0274 C.ar      1 <0>         0.1311
     22 C16        -8.4247    4.0083    3.8697 C.ar      1 <0>        -0.1515
     23 C17        -9.5202    4.7338    4.3377 C.ar      1 <0>        -0.0005
     24 C18        -9.6849    6.0674    3.9635 C.ar      1 <0>         0.1324
     25 C19        -8.7541    6.6754    3.1212 C.ar      1 <0>        -0.1338
     26 C20        -7.6586    5.9499    2.6531 C.ar      1 <0>        -0.1053
     27 F1        -10.7338    6.7771    4.4037 F         1 <0>        -0.1115
     28 Cl1       -10.6673    3.9767    5.3744 Cl        1 <0>        -0.0466
     29 O2         -3.1859   -0.9762   -0.0835 O.3       1 <0>        -0.3669
     30 C21        -3.5949   -2.3246    0.1184 C.3       1 <0>         0.1101
     31 H1         -4.3940   -2.2591    0.8715 H         1 <0>         0.0855
     32 C22        -4.0074   -2.9414   -1.1956 C.3       1 <0>        -0.1221
     33 C23        -2.6699   -3.2975   -1.8133 C.3       1 <0>         0.1256
     34 O3         -1.7744   -3.5828   -0.7302 O.3       1 <0>        -0.4032
     35 C24        -2.3865   -3.1549    0.4988 C.3       1 <0>         0.1095
     36 H2         -7.4455    0.6249   -5.2493 H         1 <0>         0.0479
     37 H3         -6.7321    0.1688   -6.8335 H         1 <0>         0.0479
     38 H4         -8.4282    0.7540   -6.7474 H         1 <0>         0.0479
     39 H5         -6.5592    3.6061   -8.0538 H         1 <0>         0.0479
     40 H6         -7.9174    2.4721   -8.3636 H         1 <0>         0.0479
     41 H7         -6.2213    1.8868   -8.4497 H         1 <0>         0.0479
     42 H8         -5.0225    1.5245   -6.0925 H         1 <0>         0.0702
     43 H9         -5.1522    3.2991   -6.3391 H         1 <0>         0.0702
     44 H10        -6.3244    3.4798   -4.0739 H         1 <0>         0.1453
     45 H11        -4.5847    0.9265   -3.8732 H         1 <0>         0.1817
     46 H12        -4.0868    0.2801   -1.8388 H         1 <0>         0.3882
     47 H13        -3.1533   -0.9064    2.5138 H         1 <0>         0.1877
     48 H14        -5.7007    2.7665    0.3765 H         1 <0>         0.1644
     49 H15        -4.7758    1.6541    6.0091 H         1 <0>         0.0799
     50 H16        -6.1189    4.2930    1.5718 H         1 <0>         0.4399
     51 H17        -8.2928    2.9682    4.1603 H         1 <0>         0.1484
     52 H18        -8.8806    7.7144    2.8314 H         1 <0>         0.1669
     53 H19        -6.9388    6.4340    1.9978 H         1 <0>         0.1567
     54 H20        -4.6409   -3.8203   -1.0052 H         1 <0>         0.0638
     55 H21        -4.5711   -2.2040   -1.7859 H         1 <0>         0.0638
     56 H22        -2.7887   -4.1771   -2.4631 H         1 <0>         0.0591
     57 H23        -2.3034   -2.4485   -2.4090 H         1 <0>         0.0591
     58 H24        -1.6906   -2.5406    1.0890 H         1 <0>         0.0738
     59 H25        -2.7094   -4.0199    1.0966 H         1 <0>         0.0738
     60 H26        -6.0132    3.1884   -0.5592 H         1 <0>         0.4827
@<TRIPOS>BOND
     1    1    2 1
     2    1   36 1
     3    1   37 1
     4    1   38 1
     5    2    3 1
     6    2    4 1
     7    3   39 1
     8    3   40 1
     9    3   41 1
    10    4    5 1
    11    4   42 1
    12    4   43 1
    13    5    6 2
    14    5   44 1
    15    6    7 1
    16    6   45 1
    17    7    8 2
    18    7    9 am
    19    8   60 1
    20    9   10 1
    21    9   46 1
    22   10   15 ar
    23   10   11 ar
    24   11   12 ar
    25   11   29 1
    26   12   13 ar
    27   12   47 1
    28   13   19 ar
    29   13   14 ar
    30   14   15 ar
    31   14   16 ar
    32   15   48 1
    33   16   17 ar
    34   16   20 1
    35   17   18 ar
    36   18   19 ar
    37   18   49 1
    38   20   21 1
    39   20   50 1
    40   21   26 ar
    41   21   22 ar
    42   22   23 ar
    43   22   51 1
    44   23   24 ar
    45   23   28 1
    46   24   25 ar
    47   24   27 1
    48   25   26 ar
    49   25   52 1
    50   26   53 1
    51   29   30 1
    52   30   31 1
    53   30   35 1
    54   30   32 1
    55   32   33 1
    56   32   54 1
    57   32   55 1
    58   33   34 1
    59   33   56 1
    60   33   57 1
    61   34   35 1
    62   35   58 1
    63   35   59 1
@<TRIPOS>MOLECULE
[4-(3-chloro-4-fluoro-anilino)-7-[(3~{S})-tetrahydrofuran-3-yl]oxy-quinazolin-1-ium-6-yl]-[(~{E})-4-(dimethylamino)-1-oxoniumylidene-but-2-enyl]azanide
   60    63     0     0     0
SMALL
USER_CHARGES

@<TRIPOS>ATOM
      1 C1         -7.4188    0.8604   -6.3235 C.3       1 <0>         0.1423
      2 N1         -6.9541    2.2345   -6.5099 N.3       1 <0>        -0.7132
      3 C2         -6.9103    2.5707   -7.9324 C.3       1 <0>         0.1423
      4 C3         -5.6397    2.4150   -5.9024 C.3       1 <0>         0.1632
      5 C4         -5.7409    2.6137   -4.4194 C.2       1 <0>        -0.0414
      6 C5         -5.1622    1.7967   -3.5279 C.2       1 <0>        -0.2076
      7 C6         -5.2942    2.0572   -2.0634 C.2       1 <0>         0.5506
      8 O1         -5.9296    3.0166   -1.6425 O.3       1 <0>        -0.7165
      9 N2         -4.6206    1.0931   -1.3249 N.2       1 <0>        -0.3039
     10 C7         -4.5211    1.0077    0.0654 C.ar      1 <0>         0.0064
     11 C8         -3.8067   -0.0223    0.6671 C.ar      1 <0>         0.2023
     12 C9         -3.7167   -0.0923    2.0604 C.ar      1 <0>        -0.2178
     13 C10        -4.3304    0.8528    2.8788 C.ar      1 <0>         0.0700
     14 C11        -5.0493    1.8882    2.2594 C.ar      1 <0>        -0.2346
     15 C12        -5.1444    1.9655    0.8590 C.ar      1 <0>        -0.1073
     16 C13        -5.6484    2.8133    3.1098 C.ar      1 <0>         0.7814
     17 N3         -5.5709    2.7595    4.4528 N.ar      1 <0>        -0.7251
     18 C14        -4.8583    1.7271    4.9314 C.ar      1 <0>         0.6250
     19 N4         -4.2328    0.7694    4.2172 N.ar      1 <0>        -0.3211
     20 N5         -6.3900    3.8870    2.5575 N.pl3     1 <0>        -0.6711
     21 C15        -7.4938    4.6164    3.0274 C.ar      1 <0>         0.0933
     22 C16        -8.4247    4.0083    3.8697 C.ar      1 <0>        -0.1063
     23 C17        -9.5202    4.7338    4.3377 C.ar      1 <0>        -0.0097
     24 C18        -9.6849    6.0674    3.9635 C.ar      1 <0>         0.1595
     25 C19        -8.7541    6.6754    3.1212 C.ar      1 <0>        -0.1315
     26 C20        -7.6586    5.9499    2.6531 C.ar      1 <0>        -0.1145
     27 F1        -10.7338    6.7771    4.4037 F         1 <0>        -0.0995
     28 Cl1       -10.6673    3.9767    5.3744 Cl        1 <0>        -0.0246
     29 O2         -3.1859   -0.9762   -0.0835 O.3       1 <0>        -0.3112
     30 C21        -3.5949   -2.3246    0.1184 C.3       1 <0>         0.1126
     31 H1         -4.3940   -2.2591    0.8715 H         1 <0>         0.0576
     32 C22        -4.0074   -2.9414   -1.1956 C.3       1 <0>        -0.1459
     33 C23        -2.6699   -3.2975   -1.8133 C.3       1 <0>         0.1286
     34 O3         -1.7744   -3.5828   -0.7302 O.3       1 <0>        -0.4073
     35 C24        -2.3865   -3.1549    0.4988 C.3       1 <0>         0.1293
     36 H2         -7.4455    0.6249   -5.2493 H         1 <0>         0.0396
     37 H3         -6.7321    0.1688   -6.8335 H         1 <0>         0.0396
     38 H4         -8.4282    0.7540   -6.7474 H         1 <0>         0.0396
     39 H5         -6.5592    3.6061   -8.0538 H         1 <0>         0.0396
     40 H6         -7.9174    2.4721   -8.3636 H         1 <0>         0.0396
     41 H7         -6.2213    1.8868   -8.4497 H         1 <0>         0.0396
     42 H8         -5.0225    1.5245   -6.0925 H         1 <0>         0.0519
     43 H9         -5.1522    3.2991   -6.3391 H         1 <0>         0.0519
     44 H10        -6.3244    3.4798   -4.0739 H         1 <0>         0.1607
     45 H11        -4.5847    0.9265   -3.8732 H         1 <0>         0.1683
     46 H12        -3.1533   -0.9064    2.5138 H         1 <0>         0.1733
     47 H13        -5.7007    2.7665    0.3765 H         1 <0>         0.1618
     48 H14        -4.7758    1.6541    6.0091 H         1 <0>         0.0973
     49 H15        -6.1189    4.2930    1.5718 H         1 <0>         0.4651
     50 H16        -8.2928    2.9682    4.1603 H         1 <0>         0.1620
     51 H17        -8.8806    7.7144    2.8314 H         1 <0>         0.1768
     52 H18        -6.9388    6.4340    1.9978 H         1 <0>         0.1565
     53 H19        -4.6409   -3.8203   -1.0052 H         1 <0>         0.0732
     54 H20        -4.5711   -2.2040   -1.7859 H         1 <0>         0.0732
     55 H21        -2.7887   -4.1771   -2.4631 H         1 <0>         0.0633
     56 H22        -2.3034   -2.4485   -2.4090 H         1 <0>         0.0633
     57 H23        -1.6906   -2.5406    1.0890 H         1 <0>         0.0734
     58 H24        -2.7094   -4.0199    1.0966 H         1 <0>         0.0734
     59 H25        -6.0132    3.1884   -0.5592 H         1 <0>         0.4264
     60 H26        -3.6634   -0.0518    4.6770 H         1 <0>         0.3365
@<TRIPOS>BOND
     1    1    2 1
     2    1   36 1
     3    1   37 1
     4    1   38 1
     5    2    3 1
     6    2    4 1
     7    3   39 1
     8    3   40 1
     9    3   41 1
    10    4    5 1
    11    4   42 1
    12    4   43 1
    13    5    6 2
    14    5   44 1
    15    6    7 1
    16    6   45 1
    17    7    8 2
    18    7    9 1
    19    8   59 1
    20    9   10 1
    21   10   15 ar
    22   10   11 ar
    23   11   12 ar
    24   11   29 1
    25   12   13 ar
    26   12   46 1
    27   13   19 ar
    28   13   14 ar
    29   14   15 ar
    30   14   16 ar
    31   15   47 1
    32   16   17 ar
    33   16   20 1
    34   17   18 ar
    35   18   19 ar
    36   18   48 1
    37   19   60 1
    38   20   21 1
    39   20   49 1
    40   21   26 ar
    41   21   22 ar
    42   22   23 ar
    43   22   50 1
    44   23   24 ar
    45   23   28 1
    46   24   25 ar
    47   24   27 1
    48   25   26 ar
    49   25   51 1
    50   26   52 1
    51   29   30 1
    52   30   31 1
    53   30   35 1
    54   30   32 1
    55   32   33 1
    56   32   53 1
    57   32   54 1
    58   33   34 1
    59   33   55 1
    60   33   56 1
    61   34   35 1
    62   35   57 1
    63   35   58 1
@<TRIPOS>MOLECULE
[4-(3-chloro-4-fluoro-anilino)-7-[(3~{S})-tetrahydrofuran-3-yl]oxy-quinazolin-3-ium-6-yl]-[(~{E})-4-(dimethylammonio)-1-oxoniumylidene-but-2-enyl]azanide
   61    64     0     0     0
SMALL
USER_CHARGES

@<TRIPOS>ATOM
      1 C1         -7.4188    0.8604   -6.3235 C.3       1 <0>         0.0804
      2 N1         -6.9541    2.2345   -6.5099 N.4       1 <0>        -0.6794
      3 C2         -6.9103    2.5707   -7.9324 C.3       1 <0>         0.0804
      4 C3         -5.6397    2.4150   -5.9024 C.3       1 <0>         0.1401
      5 C4         -5.7409    2.6137   -4.4194 C.2       1 <0>        -0.1933
      6 C5         -5.1622    1.7967   -3.5279 C.2       1 <0>        -0.0724
      7 C6         -5.2942    2.0572   -2.0634 C.2       1 <0>         0.5066
      8 O1         -5.9296    3.0166   -1.6425 O.3       1 <0>        -0.7140
      9 N2         -4.6206    1.0931   -1.3249 N.2       1 <0>        -0.2703
     10 C7         -4.5211    1.0077    0.0654 C.ar      1 <0>        -0.0284
     11 C8         -3.8067   -0.0223    0.6671 C.ar      1 <0>         0.1503
     12 C9         -3.7167   -0.0923    2.0604 C.ar      1 <0>        -0.1663
     13 C10        -4.3304    0.8528    2.8788 C.ar      1 <0>         0.4606
     14 C11        -5.0493    1.8882    2.2594 C.ar      1 <0>        -0.2240
     15 C12        -5.1444    1.9655    0.8590 C.ar      1 <0>        -0.0855
     16 C13        -5.6484    2.8133    3.1098 C.ar      1 <0>         0.3514
     17 N3         -5.5709    2.7595    4.4528 N.ar      1 <0>        -0.3392
     18 C14        -4.8583    1.7271    4.9314 C.ar      1 <0>         0.5571
     19 N4         -4.2328    0.7694    4.2172 N.ar      1 <0>        -0.6279
     20 N5         -6.3900    3.8870    2.5575 N.pl3     1 <0>        -0.5968
     21 C15        -7.4938    4.6164    3.0274 C.ar      1 <0>         0.0561
     22 C16        -8.4247    4.0083    3.8697 C.ar      1 <0>        -0.1403
     23 C17        -9.5202    4.7338    4.3377 C.ar      1 <0>        -0.0059
     24 C18        -9.6849    6.0674    3.9635 C.ar      1 <0>         0.1783
     25 C19        -8.7541    6.6754    3.1212 C.ar      1 <0>        -0.1282
     26 C20        -7.6586    5.9499    2.6531 C.ar      1 <0>        -0.1004
     27 F1        -10.7338    6.7771    4.4037 F         1 <0>        -0.0838
     28 Cl1       -10.6673    3.9767    5.3744 Cl        1 <0>        -0.0024
     29 O2         -3.1859   -0.9762   -0.0835 O.3       1 <0>        -0.3394
     30 C21        -3.5949   -2.3246    0.1184 C.3       1 <0>         0.1062
     31 H1         -4.3940   -2.2591    0.8715 H         1 <0>         0.0722
     32 C22        -4.0074   -2.9414   -1.1956 C.3       1 <0>        -0.1412
     33 C23        -2.6699   -3.2975   -1.8133 C.3       1 <0>         0.1277
     34 O3         -1.7744   -3.5828   -0.7302 O.3       1 <0>        -0.4040
     35 C24        -2.3865   -3.1549    0.4988 C.3       1 <0>         0.1315
     36 H2         -7.4455    0.6249   -5.2493 H         1 <0>         0.1096
     37 H3         -6.7321    0.1688   -6.8335 H         1 <0>         0.1096
     38 H4         -8.4282    0.7540   -6.7474 H         1 <0>         0.1096
     39 H5         -6.5592    3.6061   -8.0538 H         1 <0>         0.1096
     40 H6         -7.9174    2.4721   -8.3636 H         1 <0>         0.1096
     41 H7         -6.2213    1.8868   -8.4497 H         1 <0>         0.1096
     42 H8         -5.0225    1.5245   -6.0925 H         1 <0>         0.1162
     43 H9         -5.1522    3.2991   -6.3391 H         1 <0>         0.1162
     44 H10        -6.3244    3.4798   -4.0739 H         1 <0>         0.1813
     45 H11        -4.5847    0.9265   -3.8732 H         1 <0>         0.1724
     46 H12        -3.1533   -0.9064    2.5138 H         1 <0>         0.2056
     47 H13        -5.7007    2.7665    0.3765 H         1 <0>         0.1562
     48 H14        -4.7758    1.6541    6.0091 H         1 <0>         0.1076
     49 H15        -6.1189    4.2930    1.5718 H         1 <0>         0.4794
     50 H16        -8.2928    2.9682    4.1603 H         1 <0>         0.1500
     51 H17        -8.8806    7.7144    2.8314 H         1 <0>         0.1867
     52 H18        -6.9388    6.4340    1.9978 H         1 <0>         0.1605
     53 H19        -4.6409   -3.8203   -1.0052 H         1 <0>         0.0696
     54 H20        -4.5711   -2.2040   -1.7859 H         1 <0>         0.0696
     55 H21        -2.7887   -4.1771   -2.4631 H         1 <0>         0.0706
     56 H22        -2.3034   -2.4485   -2.4090 H         1 <0>         0.0706
     57 H23        -1.6906   -2.5406    1.0890 H         1 <0>         0.0600
     58 H24        -2.7094   -4.0199    1.0966 H         1 <0>         0.0600
     59 H25        -6.0132    3.1884   -0.5592 H         1 <0>         0.4513
     60 H26        -7.6618    2.9136   -6.0120 H         1 <0>         0.4567
     61 H27        -6.0703    3.5259    5.0637 H         1 <0>         0.3464
@<TRIPOS>BOND
     1    1    2 1
     2    1   36 1
     3    1   37 1
     4    1   38 1
     5    2    3 1
     6    2    4 1
     7    2   60 1
     8    3   39 1
     9    3   40 1
    10    3   41 1
    11    4    5 1
    12    4   42 1
    13    4   43 1
    14    5    6 2
    15    5   44 1
    16    6    7 1
    17    6   45 1
    18    7    8 2
    19    7    9 1
    20    8   59 1
    21    9   10 1
    22   10   15 ar
    23   10   11 ar
    24   11   12 ar
    25   11   29 1
    26   12   13 ar
    27   12   46 1
    28   13   19 ar
    29   13   14 ar
    30   14   15 ar
    31   14   16 ar
    32   15   47 1
    33   16   17 ar
    34   16   20 1
    35   17   18 ar
    36   17   61 1
    37   18   19 ar
    38   18   48 1
    39   20   21 1
    40   20   49 1
    41   21   26 ar
    42   21   22 ar
    43   22   23 ar
    44   22   50 1
    45   23   24 ar
    46   23   28 1
    47   24   25 ar
    48   24   27 1
    49   25   26 ar
    50   25   51 1
    51   26   52 1
    52   29   30 1
    53   30   31 1
    54   30   35 1
    55   30   32 1
    56   32   33 1
    57   32   53 1
    58   32   54 1
    59   33   34 1
    60   33   55 1
    61   33   56 1
    62   34   35 1
    63   35   57 1
    64   35   58 1
@<TRIPOS>MOLECULE
[(~{E})-4-[[4-(3-chloro-4-fluoro-anilino)-7-[(3~{S})-tetrahydrofuran-3-yl]oxy-quinazolin-1-ium-6-yl]amino]-4-oxo-but-2-enyl]-dimethyl-ammonium
   61    64     0     0     0
SMALL
USER_CHARGES

@<TRIPOS>ATOM
      1 C1         -7.4188    0.8604   -6.3235 C.3       1 <0>         0.0808
      2 N1         -6.9541    2.2345   -6.5099 N.4       1 <0>        -0.6795
      3 C2         -6.9103    2.5707   -7.9324 C.3       1 <0>         0.0808
      4 C3         -5.6397    2.4150   -5.9024 C.3       1 <0>         0.1352
      5 C4         -5.7409    2.6137   -4.4194 C.2       1 <0>        -0.1629
      6 C5         -5.1622    1.7967   -3.5279 C.2       1 <0>        -0.1593
      7 C6         -5.2942    2.0572   -2.0634 C.2       1 <0>         0.6653
      8 O1         -5.9296    3.0166   -1.6425 O.2       1 <0>        -0.5835
      9 N2         -4.6206    1.0931   -1.3249 N.am      1 <0>        -0.4458
     10 C7         -4.5211    1.0077    0.0654 C.ar      1 <0>         0.0514
     11 C8         -3.8067   -0.0223    0.6671 C.ar      1 <0>         0.1743
     12 C9         -3.7167   -0.0923    2.0604 C.ar      1 <0>        -0.1899
     13 C10        -4.3304    0.8528    2.8788 C.ar      1 <0>         0.0761
     14 C11        -5.0493    1.8882    2.2594 C.ar      1 <0>        -0.2230
     15 C12        -5.1444    1.9655    0.8590 C.ar      1 <0>        -0.1058
     16 C13        -5.6484    2.8133    3.1098 C.ar      1 <0>         0.7756
     17 N3         -5.5709    2.7595    4.4528 N.ar      1 <0>        -0.7343
     18 C14        -4.8583    1.7271    4.9314 C.ar      1 <0>         0.6369
     19 N4         -4.2328    0.7694    4.2172 N.ar      1 <0>        -0.3345
     20 N5         -6.3900    3.8870    2.5575 N.pl3     1 <0>        -0.6386
     21 C15        -7.4938    4.6164    3.0274 C.ar      1 <0>         0.0604
     22 C16        -8.4247    4.0083    3.8697 C.ar      1 <0>        -0.1042
     23 C17        -9.5202    4.7338    4.3377 C.ar      1 <0>        -0.0136
     24 C18        -9.6849    6.0674    3.9635 C.ar      1 <0>         0.1776
     25 C19        -8.7541    6.6754    3.1212 C.ar      1 <0>        -0.1447
     26 C20        -7.6586    5.9499    2.6531 C.ar      1 <0>        -0.0789
     27 F1        -10.7338    6.7771    4.4037 F         1 <0>        -0.0921
     28 Cl1       -10.6673    3.9767    5.3744 Cl        1 <0>        -0.0139
     29 O2         -3.1859   -0.9762   -0.0835 O.3       1 <0>        -0.3535
     30 C21        -3.5949   -2.3246    0.1184 C.3       1 <0>         0.1104
     31 H1         -4.3940   -2.2591    0.8715 H         1 <0>         0.0805
     32 C22        -4.0074   -2.9414   -1.1956 C.3       1 <0>        -0.1229
     33 C23        -2.6699   -3.2975   -1.8133 C.3       1 <0>         0.1247
     34 O3         -1.7744   -3.5828   -0.7302 O.3       1 <0>        -0.3928
     35 C24        -2.3865   -3.1549    0.4988 C.3       1 <0>         0.1080
     36 H2         -7.4455    0.6249   -5.2493 H         1 <0>         0.1107
     37 H3         -6.7321    0.1688   -6.8335 H         1 <0>         0.1107
     38 H4         -8.4282    0.7540   -6.7474 H         1 <0>         0.1107
     39 H5         -6.5592    3.6061   -8.0538 H         1 <0>         0.1107
     40 H6         -7.9174    2.4721   -8.3636 H         1 <0>         0.1107
     41 H7         -6.2213    1.8868   -8.4497 H         1 <0>         0.1107
     42 H8         -5.0225    1.5245   -6.0925 H         1 <0>         0.1175
     43 H9         -5.1522    3.2991   -6.3391 H         1 <0>         0.1175
     44 H10        -6.3244    3.4798   -4.0739 H         1 <0>         0.1841
     45 H11        -4.5847    0.9265   -3.8732 H         1 <0>         0.1538
     46 H12        -4.0868    0.2801   -1.8388 H         1 <0>         0.3510
     47 H13        -3.1533   -0.9064    2.5138 H         1 <0>         0.1795
     48 H14        -5.7007    2.7665    0.3765 H         1 <0>         0.1850
     49 H15        -4.7758    1.6541    6.0091 H         1 <0>         0.1032
     50 H16        -6.1189    4.2930    1.5718 H         1 <0>         0.4750
     51 H17        -8.2928    2.9682    4.1603 H         1 <0>         0.1619
     52 H18        -8.8806    7.7144    2.8314 H         1 <0>         0.1811
     53 H19        -6.9388    6.4340    1.9978 H         1 <0>         0.1571
     54 H20        -4.6409   -3.8203   -1.0052 H         1 <0>         0.0692
     55 H21        -4.5711   -2.2040   -1.7859 H         1 <0>         0.0692
     56 H22        -2.7887   -4.1771   -2.4631 H         1 <0>         0.0620
     57 H23        -2.3034   -2.4485   -2.4090 H         1 <0>         0.0620
     58 H24        -1.6906   -2.5406    1.0890 H         1 <0>         0.0734
     59 H25        -2.7094   -4.0199    1.0966 H         1 <0>         0.0734
     60 H26        -7.6618    2.9136   -6.0120 H         1 <0>         0.4551
     61 H27        -3.6634   -0.0518    4.6770 H         1 <0>         0.3405
@<TRIPOS>BOND
     1    1    2 1
     2    1   36 1
     3    1   37 1
     4    1   38 1
     5    2    3 1
     6    2    4 1
     7    2   60 1
     8    3   39 1
     9    3   40 1
    10    3   41 1
    11    4    5 1
    12    4   42 1
    13    4   43 1
    14    5    6 2
    15    5   44 1
    16    6    7 1
    17    6   45 1
    18    7    8 2
    19    7    9 am
    20    9   10 1
    21    9   46 1
    22   10   15 ar
    23   10   11 ar
    24   11   12 ar
    25   11   29 1
    26   12   13 ar
    27   12   47 1
    28   13   19 ar
    29   13   14 ar
    30   14   15 ar
    31   14   16 ar
    32   15   48 1
    33   16   17 ar
    34   16   20 1
    35   17   18 ar
    36   18   19 ar
    37   18   49 1
    38   19   61 1
    39   20   21 1
    40   20   50 1
    41   21   26 ar
    42   21   22 ar
    43   22   23 ar
    44   22   51 1
    45   23   24 ar
    46   23   28 1
    47   24   25 ar
    48   24   27 1
    49   25   26 ar
    50   25   52 1
    51   26   53 1
    52   29   30 1
    53   30   31 1
    54   30   35 1
    55   30   32 1
    56   32   33 1
    57   32   54 1
    58   32   55 1
    59   33   34 1
    60   33   56 1
    61   33   57 1
    62   34   35 1
    63   35   58 1
    64   35   59 1
@<TRIPOS>MOLECULE
(~{E})-~{N}-[4-(3-chloro-4-fluoro-anilino)-7-[(3~{S})-tetrahydrofuran-3-yl]oxy-quinazolin-1-ium-6-yl]-4-(dimethylamino)but-2-enamide
   60    63     0     0     0
SMALL
USER_CHARGES

@<TRIPOS>ATOM
      1 C1         -7.4188    0.8604   -6.3235 C.3       1 <0>         0.1413
      2 N1         -6.9541    2.2345   -6.5099 N.3       1 <0>        -0.7129
      3 C2         -6.9103    2.5707   -7.9324 C.3       1 <0>         0.1413
      4 C3         -5.6397    2.4150   -5.9024 C.3       1 <0>         0.1646
      5 C4         -5.7409    2.6137   -4.4194 C.2       1 <0>        -0.0307
      6 C5         -5.1622    1.7967   -3.5279 C.2       1 <0>        -0.2779
      7 C6         -5.2942    2.0572   -2.0634 C.2       1 <0>         0.6816
      8 O1         -5.9296    3.0166   -1.6425 O.2       1 <0>        -0.5934
      9 N2         -4.6206    1.0931   -1.3249 N.am      1 <0>        -0.4703
     10 C7         -4.5211    1.0077    0.0654 C.ar      1 <0>         0.0856
     11 C8         -3.8067   -0.0223    0.6671 C.ar      1 <0>         0.1586
     12 C9         -3.7167   -0.0923    2.0604 C.ar      1 <0>        -0.1873
     13 C10        -4.3304    0.8528    2.8788 C.ar      1 <0>         0.0478
     14 C11        -5.0493    1.8882    2.2594 C.ar      1 <0>        -0.2113
     15 C12        -5.1444    1.9655    0.8590 C.ar      1 <0>        -0.1126
     16 C13        -5.6484    2.8133    3.1098 C.ar      1 <0>         0.7821
     17 N3         -5.5709    2.7595    4.4528 N.ar      1 <0>        -0.7457
     18 C14        -4.8583    1.7271    4.9314 C.ar      1 <0>         0.6299
     19 N4         -4.2328    0.7694    4.2172 N.ar      1 <0>        -0.3273
     20 N5         -6.3900    3.8870    2.5575 N.pl3     1 <0>        -0.6502
     21 C15        -7.4938    4.6164    3.0274 C.ar      1 <0>         0.0587
     22 C16        -8.4247    4.0083    3.8697 C.ar      1 <0>        -0.0637
     23 C17        -9.5202    4.7338    4.3377 C.ar      1 <0>        -0.0236
     24 C18        -9.6849    6.0674    3.9635 C.ar      1 <0>         0.1710
     25 C19        -8.7541    6.6754    3.1212 C.ar      1 <0>        -0.1443
     26 C20        -7.6586    5.9499    2.6531 C.ar      1 <0>        -0.1065
     27 F1        -10.7338    6.7771    4.4037 F         1 <0>        -0.0990
     28 Cl1       -10.6673    3.9767    5.3744 Cl        1 <0>        -0.0243
     29 O2         -3.1859   -0.9762   -0.0835 O.3       1 <0>        -0.3451
     30 C21        -3.5949   -2.3246    0.1184 C.3       1 <0>         0.1120
     31 H1         -4.3940   -2.2591    0.8715 H         1 <0>         0.0744
     32 C22        -4.0074   -2.9414   -1.1956 C.3       1 <0>        -0.1223
     33 C23        -2.6699   -3.2975   -1.8133 C.3       1 <0>         0.1252
     34 O3         -1.7744   -3.5828   -0.7302 O.3       1 <0>        -0.4049
     35 C24        -2.3865   -3.1549    0.4988 C.3       1 <0>         0.1107
     36 H2         -7.4455    0.6249   -5.2493 H         1 <0>         0.0394
     37 H3         -6.7321    0.1688   -6.8335 H         1 <0>         0.0394
     38 H4         -8.4282    0.7540   -6.7474 H         1 <0>         0.0394
     39 H5         -6.5592    3.6061   -8.0538 H         1 <0>         0.0394
     40 H6         -7.9174    2.4721   -8.3636 H         1 <0>         0.0394
     41 H7         -6.2213    1.8868   -8.4497 H         1 <0>         0.0394
     42 H8         -5.0225    1.5245   -6.0925 H         1 <0>         0.0536
     43 H9         -5.1522    3.2991   -6.3391 H         1 <0>         0.0536
     44 H10        -6.3244    3.4798   -4.0739 H         1 <0>         0.1583
     45 H11        -4.5847    0.9265   -3.8732 H         1 <0>         0.1535
     46 H12        -4.0868    0.2801   -1.8388 H         1 <0>         0.3486
     47 H13        -3.1533   -0.9064    2.5138 H         1 <0>         0.1703
     48 H14        -5.7007    2.7665    0.3765 H         1 <0>         0.1824
     49 H15        -4.7758    1.6541    6.0091 H         1 <0>         0.0930
     50 H16        -6.1189    4.2930    1.5718 H         1 <0>         0.4786
     51 H17        -8.2928    2.9682    4.1603 H         1 <0>         0.1734
     52 H18        -8.8806    7.7144    2.8314 H         1 <0>         0.1758
     53 H19        -6.9388    6.4340    1.9978 H         1 <0>         0.1522
     54 H20        -4.6409   -3.8203   -1.0052 H         1 <0>         0.0728
     55 H21        -4.5711   -2.2040   -1.7859 H         1 <0>         0.0728
     56 H22        -2.7887   -4.1771   -2.4631 H         1 <0>         0.0632
     57 H23        -2.3034   -2.4485   -2.4090 H         1 <0>         0.0632
     58 H24        -1.6906   -2.5406    1.0890 H         1 <0>         0.0662
     59 H25        -2.7094   -4.0199    1.0966 H         1 <0>         0.0662
     60 H26        -3.6634   -0.0518    4.6770 H         1 <0>         0.3343
@<TRIPOS>BOND
     1    1    2 1
     2    1   36 1
     3    1   37 1
     4    1   38 1
     5    2    3 1
     6    2    4 1
     7    3   39 1
     8    3   40 1
     9    3   41 1
    10    4    5 1
    11    4   42 1
    12    4   43 1
    13    5    6 2
    14    5   44 1
    15    6    7 1
    16    6   45 1
    17    7    8 2
    18    7    9 am
    19    9   10 1
    20    9   46 1
    21   10   15 ar
    22   10   11 ar
    23   11   12 ar
    24   11   29 1
    25   12   13 ar
    26   12   47 1
    27   13   19 ar
    28   13   14 ar
    29   14   15 ar
    30   14   16 ar
    31   15   48 1
    32   16   17 ar
    33   16   20 1
    34   17   18 ar
    35   18   19 ar
    36   18   49 1
    37   19   60 1
    38   20   21 1
    39   20   50 1
    40   21   26 ar
    41   21   22 ar
    42   22   23 ar
    43   22   51 1
    44   23   24 ar
    45   23   28 1
    46   24   25 ar
    47   24   27 1
    48   25   26 ar
    49   25   52 1
    50   26   53 1
    51   29   30 1
    52   30   31 1
    53   30   35 1
    54   30   32 1
    55   32   33 1
    56   32   54 1
    57   32   55 1
    58   33   34 1
    59   33   56 1
    60   33   57 1
    61   34   35 1
    62   35   58 1
    63   35   59 1
@<TRIPOS>MOLECULE
(~{E},1~{Z})-~{N}-[4-(3-chloro-4-fluoro-anilino)-7-[(3~{S})-tetrahydrofuran-3-yl]oxy-quinazolin-6-yl]-4-(dimethylammonio)but-2-enimidate
   59    62     0     0     0
SMALL
USER_CHARGES

@<TRIPOS>ATOM
      1 C1         -7.4188    0.8604   -6.3235 C.3       1 <0>         0.0832
      2 N1         -6.9541    2.2345   -6.5099 N.4       1 <0>        -0.6884
      3 C2         -6.9103    2.5707   -7.9324 C.3       1 <0>         0.0832
      4 C3         -5.6397    2.4150   -5.9024 C.3       1 <0>         0.1739
      5 C4         -5.7409    2.6137   -4.4194 C.2       1 <0>        -0.3248
      6 C5         -5.1622    1.7967   -3.5279 C.2       1 <0>        -0.0919
      7 C6         -5.2942    2.0572   -2.0634 C.2       1 <0>         0.9362
      8 O1         -5.9296    3.0166   -1.6425 O.3       1 <0>        -0.8014
      9 N2         -4.6206    1.0931   -1.3249 N.2       1 <0>        -0.8657
     10 C7         -4.5211    1.0077    0.0654 C.ar      1 <0>         0.2793
     11 C8         -3.8067   -0.0223    0.6671 C.ar      1 <0>         0.0938
     12 C9         -3.7167   -0.0923    2.0604 C.ar      1 <0>        -0.2170
     13 C10        -4.3304    0.8528    2.8788 C.ar      1 <0>         0.3956
     14 C11        -5.0493    1.8882    2.2594 C.ar      1 <0>        -0.2412
     15 C12        -5.1444    1.9655    0.8590 C.ar      1 <0>        -0.1654
     16 C13        -5.6484    2.8133    3.1098 C.ar      1 <0>         0.6806
     17 N3         -5.5709    2.7595    4.4528 N.ar      1 <0>        -0.7581
     18 C14        -4.8583    1.7271    4.9314 C.ar      1 <0>         0.6326
     19 N4         -4.2328    0.7694    4.2172 N.ar      1 <0>        -0.6949
     20 N5         -6.3900    3.8870    2.5575 N.pl3     1 <0>        -0.7546
     21 C15        -7.4938    4.6164    3.0274 C.ar      1 <0>         0.1850
     22 C16        -8.4247    4.0083    3.8697 C.ar      1 <0>        -0.1284
     23 C17        -9.5202    4.7338    4.3377 C.ar      1 <0>         0.0086
     24 C18        -9.6849    6.0674    3.9635 C.ar      1 <0>         0.0885
     25 C19        -8.7541    6.6754    3.1212 C.ar      1 <0>        -0.1284
     26 C20        -7.6586    5.9499    2.6531 C.ar      1 <0>        -0.1707
     27 F1        -10.7338    6.7771    4.4037 F         1 <0>        -0.1348
     28 Cl1       -10.6673    3.9767    5.3744 Cl        1 <0>        -0.0758
     29 O2         -3.1859   -0.9762   -0.0835 O.3       1 <0>        -0.3255
     30 C21        -3.5949   -2.3246    0.1184 C.3       1 <0>         0.1175
     31 H1         -4.3940   -2.2591    0.8715 H         1 <0>         0.0739
     32 C22        -4.0074   -2.9414   -1.1956 C.3       1 <0>        -0.1276
     33 C23        -2.6699   -3.2975   -1.8133 C.3       1 <0>         0.1297
     34 O3         -1.7744   -3.5828   -0.7302 O.3       1 <0>        -0.4269
     35 C24        -2.3865   -3.1549    0.4988 C.3       1 <0>         0.1064
     36 H2         -7.4455    0.6249   -5.2493 H         1 <0>         0.0995
     37 H3         -6.7321    0.1688   -6.8335 H         1 <0>         0.0995
     38 H4         -8.4282    0.7540   -6.7474 H         1 <0>         0.0995
     39 H5         -6.5592    3.6061   -8.0538 H         1 <0>         0.0995
     40 H6         -7.9174    2.4721   -8.3636 H         1 <0>         0.0995
     41 H7         -6.2213    1.8868   -8.4497 H         1 <0>         0.0995
     42 H8         -5.0225    1.5245   -6.0925 H         1 <0>         0.0846
     43 H9         -5.1522    3.2991   -6.3391 H         1 <0>         0.0846
     44 H10        -6.3244    3.4798   -4.0739 H         1 <0>         0.1676
     45 H11        -4.5847    0.9265   -3.8732 H         1 <0>         0.1228
     46 H12        -3.1533   -0.9064    2.5138 H         1 <0>         0.1459
     47 H13        -5.7007    2.7665    0.3765 H         1 <0>         0.1339
     48 H14        -4.7758    1.6541    6.0091 H         1 <0>         0.0455
     49 H15        -6.1189    4.2930    1.5718 H         1 <0>         0.4470
     50 H16        -8.2928    2.9682    4.1603 H         1 <0>         0.1684
     51 H17        -8.8806    7.7144    2.8314 H         1 <0>         0.1481
     52 H18        -6.9388    6.4340    1.9978 H         1 <0>         0.1387
     53 H19        -4.6409   -3.8203   -1.0052 H         1 <0>         0.0651
     54 H20        -4.5711   -2.2040   -1.7859 H         1 <0>         0.0651
     55 H21        -2.7887   -4.1771   -2.4631 H         1 <0>         0.0352
     56 H22        -2.3034   -2.4485   -2.4090 H         1 <0>         0.0352
     57 H23        -1.6906   -2.5406    1.0890 H         1 <0>         0.0620
     58 H24        -2.7094   -4.0199    1.0966 H         1 <0>         0.0620
     59 H25        -7.6618    2.9136   -6.0120 H         1 <0>         0.4446
@<TRIPOS>BOND
     1    1    2 1
     2    1   36 1
     3    1   37 1
     4    1   38 1
     5    2    3 1
     6    2    4 1
     7    2   59 1
     8    3   39 1
     9    3   40 1
    10    3   41 1
    11    4    5 1
    12    4   42 1
    13    4   43 1
    14    5    6 2
    15    5   44 1
    16    6    7 1
    17    6   45 1
    18    7    8 1
    19    7    9 2
    20    9   10 1
    21   10   15 ar
    22   10   11 ar
    23   11   12 ar
    24   11   29 1
    25   12   13 ar
    26   12   46 1
    27   13   19 ar
    28   13   14 ar
    29   14   15 ar
    30   14   16 ar
    31   15   47 1
    32   16   17 ar
    33   16   20 1
    34   17   18 ar
    35   18   19 ar
    36   18   48 1
    37   20   21 1
    38   20   49 1
    39   21   26 ar
    40   21   22 ar
    41   22   23 ar
    42   22   50 1
    43   23   24 ar
    44   23   28 1
    45   24   25 ar
    46   24   27 1
    47   25   26 ar
    48   25   51 1
    49   26   52 1
    50   29   30 1
    51   30   31 1
    52   30   35 1
    53   30   32 1
    54   32   33 1
    55   32   53 1
    56   32   54 1
    57   33   34 1
    58   33   55 1
    59   33   56 1
    60   34   35 1
    61   35   57 1
    62   35   58 1
