(~{E})-~{N}-[4-(3-chloro-4-fluoro-anilino)-7-[(3~{S})-tetrahydrofuran-3-yl]oxy-quinazolin-6-yl]-4-(dimethylamino)but-2-enamide
                    3D
 Structure written by MMmdl.
 60 63  0  0  1  0            999 V2000
   -7.4188    0.8604   -6.3235 C   0  0  0  0  0  0
   -6.9541    2.2345   -6.5099 N   0  3  0  0  0  0
   -6.9103    2.5707   -7.9324 C   0  0  0  0  0  0
   -5.6397    2.4150   -5.9024 C   0  0  0  0  0  0
   -5.7409    2.6137   -4.4194 C   0  0  0  0  0  0
   -5.1622    1.7967   -3.5279 C   0  0  0  0  0  0
   -5.2942    2.0572   -2.0634 C   0  0  0  0  0  0
   -5.9296    3.0166   -1.6425 O   0  0  0  0  0  0
   -4.6206    1.0931   -1.3249 N   0  0  0  0  0  0
   -4.5211    1.0077    0.0654 C   0  0  0  0  0  0
   -3.8067   -0.0223    0.6671 C   0  0  0  0  0  0
   -3.7167   -0.0923    2.0604 C   0  0  0  0  0  0
   -4.3304    0.8528    2.8788 C   0  0  0  0  0  0
   -5.0493    1.8882    2.2594 C   0  0  0  0  0  0
   -5.1444    1.9655    0.8590 C   0  0  0  0  0  0
   -5.6484    2.8133    3.1098 C   0  0  0  0  0  0
   -5.5709    2.7595    4.4528 N   0  0  0  0  0  0
   -4.8583    1.7271    4.9314 C   0  0  0  0  0  0
   -4.2328    0.7694    4.2172 N   0  0  0  0  0  0
   -6.3900    3.8870    2.5575 N   0  0  0  0  0  0
   -7.4938    4.6164    3.0274 C   0  0  0  0  0  0
   -8.4247    4.0083    3.8697 C   0  0  0  0  0  0
   -9.5202    4.7338    4.3377 C   0  0  0  0  0  0
   -9.6849    6.0674    3.9635 C   0  0  0  0  0  0
   -8.7541    6.6754    3.1212 C   0  0  0  0  0  0
   -7.6586    5.9499    2.6531 C   0  0  0  0  0  0
  -10.7338    6.7771    4.4037 F   0  0  0  0  0  0
  -10.6673    3.9767    5.3744 Cl  0  0  0  0  0  0
   -3.1859   -0.9762   -0.0835 O   0  0  0  0  0  0
   -3.5949   -2.3246    0.1184 C   0  0  1  0  0  0
   -4.3940   -2.2591    0.8715 H   0  0  0  0  0  0
   -4.0074   -2.9414   -1.1956 C   0  0  0  0  0  0
   -2.6699   -3.2975   -1.8133 C   0  0  0  0  0  0
   -1.7744   -3.5828   -0.7302 O   0  0  0  0  0  0
   -2.3865   -3.1549    0.4988 C   0  0  0  0  0  0
   -7.4455    0.6249   -5.2493 H   0  0  0  0  0  0
   -6.7321    0.1688   -6.8335 H   0  0  0  0  0  0
   -8.4282    0.7540   -6.7474 H   0  0  0  0  0  0
   -6.5592    3.6061   -8.0538 H   0  0  0  0  0  0
   -7.9174    2.4721   -8.3636 H   0  0  0  0  0  0
   -6.2213    1.8868   -8.4497 H   0  0  0  0  0  0
   -5.0225    1.5245   -6.0925 H   0  0  0  0  0  0
   -5.1522    3.2991   -6.3391 H   0  0  0  0  0  0
   -6.3244    3.4798   -4.0739 H   0  0  0  0  0  0
   -4.5847    0.9265   -3.8732 H   0  0  0  0  0  0
   -4.0868    0.2801   -1.8388 H   0  0  0  0  0  0
   -3.1533   -0.9064    2.5138 H   0  0  0  0  0  0
   -5.7007    2.7665    0.3765 H   0  0  0  0  0  0
   -4.7758    1.6541    6.0091 H   0  0  0  0  0  0
   -6.1189    4.2930    1.5718 H   0  0  0  0  0  0
   -8.2928    2.9682    4.1603 H   0  0  0  0  0  0
   -8.8806    7.7144    2.8314 H   0  0  0  0  0  0
   -6.9388    6.4340    1.9978 H   0  0  0  0  0  0
   -4.6409   -3.8203   -1.0052 H   0  0  0  0  0  0
   -4.5711   -2.2040   -1.7859 H   0  0  0  0  0  0
   -2.7887   -4.1771   -2.4631 H   0  0  0  0  0  0
   -2.3034   -2.4485   -2.4090 H   0  0  0  0  0  0
   -1.6906   -2.5406    1.0890 H   0  0  0  0  0  0
   -2.7094   -4.0199    1.0966 H   0  0  0  0  0  0
   -7.6618    2.9136   -6.0120 H   0  0  0  0  0  0
  1  2  1  0  0  0
  1 36  1  0  0  0
  1 37  1  0  0  0
  1 38  1  0  0  0
  2  3  1  0  0  0
  2  4  1  0  0  0
  2 60  1  0  0  0
  3 39  1  0  0  0
  3 40  1  0  0  0
  3 41  1  0  0  0
  4  5  1  0  0  0
  4 42  1  0  0  0
  4 43  1  0  0  0
  5  6  2  0  0  0
  5 44  1  0  0  0
  6  7  1  0  0  0
  6 45  1  0  0  0
  7  8  2  0  0  0
  7  9  1  0  0  0
  9 10  1  0  0  0
  9 46  1  0  0  0
 10 15  2  0  0  0
 10 11  1  0  0  0
 11 12  2  0  0  0
 11 29  1  0  0  0
 12 13  1  0  0  0
 12 47  1  0  0  0
 13 19  1  0  0  0
 13 14  2  0  0  0
 14 15  1  0  0  0
 14 16  1  0  0  0
 15 48  1  0  0  0
 16 17  2  0  0  0
 16 20  1  0  0  0
 17 18  1  0  0  0
 18 19  2  0  0  0
 18 49  1  0  0  0
 20 21  1  0  0  0
 20 50  1  0  0  0
 21 26  2  0  0  0
 21 22  1  0  0  0
 22 23  2  0  0  0
 22 51  1  0  0  0
 23 24  1  0  0  0
 23 28  1  0  0  0
 24 25  2  0  0  0
 24 27  1  0  0  0
 25 26  1  0  0  0
 25 52  1  0  0  0
 26 53  1  0  0  0
 29 30  1  0  0  0
 30 31  1  0  0  0
 30 35  1  0  0  0
 30 32  1  0  0  0
 32 33  1  0  0  0
 32 54  1  0  0  0
 32 55  1  0  0  0
 33 34  1  0  0  0
 33 56  1  0  0  0
 33 57  1  0  0  0
 34 35  1  0  0  0
 35 58  1  0  0  0
 35 59  1  0  0  0
M  CHG  1   2   1
M  END
> <s_m_source_file>
/Users/andrea/Development/mcce-charges/epik_inhibitors/output/Afatinib/Afatinib-input.mol2

> <i_m_source_file_index>
1

> <r_epik_Ionization_Penalty>
  0.3700

> <r_epik_Ionization_Penalty_Charging>
  0.3693

> <r_epik_Ionization_Penalty_Neutral>
  0.0007

> <r_epik_State_Penalty>
  0.1590

> <i_epik_Tot_Q>
1

$$$$
(~{E})-~{N}-[4-(3-chloro-4-fluoro-anilino)-7-[(3~{S})-tetrahydrofuran-3-yl]oxy-quinazolin-6-yl]-4-(dimethylamino)but-2-enamide
                    3D
 Structure written by MMmdl.
 59 62  0  0  1  0            999 V2000
   -7.4188    0.8604   -6.3235 C   0  0  0  0  0  0
   -6.9541    2.2345   -6.5099 N   0  0  0  0  0  0
   -6.9103    2.5707   -7.9324 C   0  0  0  0  0  0
   -5.6397    2.4150   -5.9024 C   0  0  0  0  0  0
   -5.7409    2.6137   -4.4194 C   0  0  0  0  0  0
   -5.1622    1.7967   -3.5279 C   0  0  0  0  0  0
   -5.2942    2.0572   -2.0634 C   0  0  0  0  0  0
   -5.9296    3.0166   -1.6425 O   0  0  0  0  0  0
   -4.6206    1.0931   -1.3249 N   0  0  0  0  0  0
   -4.5211    1.0077    0.0654 C   0  0  0  0  0  0
   -3.8067   -0.0223    0.6671 C   0  0  0  0  0  0
   -3.7167   -0.0923    2.0604 C   0  0  0  0  0  0
   -4.3304    0.8528    2.8788 C   0  0  0  0  0  0
   -5.0493    1.8882    2.2594 C   0  0  0  0  0  0
   -5.1444    1.9655    0.8590 C   0  0  0  0  0  0
   -5.6484    2.8133    3.1098 C   0  0  0  0  0  0
   -5.5709    2.7595    4.4528 N   0  0  0  0  0  0
   -4.8583    1.7271    4.9314 C   0  0  0  0  0  0
   -4.2328    0.7694    4.2172 N   0  0  0  0  0  0
   -6.3900    3.8870    2.5575 N   0  0  0  0  0  0
   -7.4938    4.6164    3.0274 C   0  0  0  0  0  0
   -8.4247    4.0083    3.8697 C   0  0  0  0  0  0
   -9.5202    4.7338    4.3377 C   0  0  0  0  0  0
   -9.6849    6.0674    3.9635 C   0  0  0  0  0  0
   -8.7541    6.6754    3.1212 C   0  0  0  0  0  0
   -7.6586    5.9499    2.6531 C   0  0  0  0  0  0
  -10.7338    6.7771    4.4037 F   0  0  0  0  0  0
  -10.6673    3.9767    5.3744 Cl  0  0  0  0  0  0
   -3.1859   -0.9762   -0.0835 O   0  0  0  0  0  0
   -3.5949   -2.3246    0.1184 C   0  0  1  0  0  0
   -4.3940   -2.2591    0.8715 H   0  0  0  0  0  0
   -4.0074   -2.9414   -1.1956 C   0  0  0  0  0  0
   -2.6699   -3.2975   -1.8133 C   0  0  0  0  0  0
   -1.7744   -3.5828   -0.7302 O   0  0  0  0  0  0
   -2.3865   -3.1549    0.4988 C   0  0  0  0  0  0
   -7.4455    0.6249   -5.2493 H   0  0  0  0  0  0
   -6.7321    0.1688   -6.8335 H   0  0  0  0  0  0
   -8.4282    0.7540   -6.7474 H   0  0  0  0  0  0
   -6.5592    3.6061   -8.0538 H   0  0  0  0  0  0
   -7.9174    2.4721   -8.3636 H   0  0  0  0  0  0
   -6.2213    1.8868   -8.4497 H   0  0  0  0  0  0
   -5.0225    1.5245   -6.0925 H   0  0  0  0  0  0
   -5.1522    3.2991   -6.3391 H   0  0  0  0  0  0
   -6.3244    3.4798   -4.0739 H   0  0  0  0  0  0
   -4.5847    0.9265   -3.8732 H   0  0  0  0  0  0
   -4.0868    0.2801   -1.8388 H   0  0  0  0  0  0
   -3.1533   -0.9064    2.5138 H   0  0  0  0  0  0
   -5.7007    2.7665    0.3765 H   0  0  0  0  0  0
   -4.7758    1.6541    6.0091 H   0  0  0  0  0  0
   -6.1189    4.2930    1.5718 H   0  0  0  0  0  0
   -8.2928    2.9682    4.1603 H   0  0  0  0  0  0
   -8.8806    7.7144    2.8314 H   0  0  0  0  0  0
   -6.9388    6.4340    1.9978 H   0  0  0  0  0  0
   -4.6409   -3.8203   -1.0052 H   0  0  0  0  0  0
   -4.5711   -2.2040   -1.7859 H   0  0  0  0  0  0
   -2.7887   -4.1771   -2.4631 H   0  0  0  0  0  0
   -2.3034   -2.4485   -2.4090 H   0  0  0  0  0  0
   -1.6906   -2.5406    1.0890 H   0  0  0  0  0  0
   -2.7094   -4.0199    1.0966 H   0  0  0  0  0  0
  1  2  1  0  0  0
  1 36  1  0  0  0
  1 37  1  0  0  0
  1 38  1  0  0  0
  2  3  1  0  0  0
  2  4  1  0  0  0
  3 39  1  0  0  0
  3 40  1  0  0  0
  3 41  1  0  0  0
  4  5  1  0  0  0
  4 42  1  0  0  0
  4 43  1  0  0  0
  5  6  2  0  0  0
  5 44  1  0  0  0
  6  7  1  0  0  0
  6 45  1  0  0  0
  7  8  2  0  0  0
  7  9  1  0  0  0
  9 10  1  0  0  0
  9 46  1  0  0  0
 10 15  2  0  0  0
 10 11  1  0  0  0
 11 12  2  0  0  0
 11 29  1  0  0  0
 12 13  1  0  0  0
 12 47  1  0  0  0
 13 19  1  0  0  0
 13 14  2  0  0  0
 14 15  1  0  0  0
 14 16  1  0  0  0
 15 48  1  0  0  0
 16 17  2  0  0  0
 16 20  1  0  0  0
 17 18  1  0  0  0
 18 19  2  0  0  0
 18 49  1  0  0  0
 20 21  1  0  0  0
 20 50  1  0  0  0
 21 26  2  0  0  0
 21 22  1  0  0  0
 22 23  2  0  0  0
 22 51  1  0  0  0
 23 24  1  0  0  0
 23 28  1  0  0  0
 24 25  2  0  0  0
 24 27  1  0  0  0
 25 26  1  0  0  0
 25 52  1  0  0  0
 26 53  1  0  0  0
 29 30  1  0  0  0
 30 31  1  0  0  0
 30 35  1  0  0  0
 30 32  1  0  0  0
 32 33  1  0  0  0
 32 54  1  0  0  0
 32 55  1  0  0  0
 33 34  1  0  0  0
 33 56  1  0  0  0
 33 57  1  0  0  0
 34 35  1  0  0  0
 35 58  1  0  0  0
 35 59  1  0  0  0
M  END
> <s_m_source_file>
/Users/andrea/Development/mcce-charges/epik_inhibitors/output/Afatinib/Afatinib-input.mol2

> <i_m_source_file_index>
1

> <r_lp_tautomer_probability>
0.999978000241998

> <r_epik_Ionization_Penalty>
  0.4566

> <r_epik_Ionization_Penalty_Charging>
  0.0000

> <r_epik_Ionization_Penalty_Neutral>
  0.4566

> <r_epik_State_Penalty>
  1.0452

> <i_epik_Tot_Q>
0

$$$$
(~{E})-~{N}-[4-(3-chloro-4-fluoro-anilino)-7-[(3~{S})-tetrahydrofuran-3-yl]oxy-quinazolin-6-yl]-4-(dimethylamino)but-2-enamide
                    3D
 Structure written by MMmdl.
 60 63  0  0  1  0            999 V2000
   -7.4188    0.8604   -6.3235 C   0  0  0  0  0  0
   -6.9541    2.2345   -6.5099 N   0  3  0  0  0  0
   -6.9103    2.5707   -7.9324 C   0  0  0  0  0  0
   -5.6397    2.4150   -5.9024 C   0  0  0  0  0  0
   -5.7409    2.6137   -4.4194 C   0  0  0  0  0  0
   -5.1622    1.7967   -3.5279 C   0  0  0  0  0  0
   -5.2942    2.0572   -2.0634 C   0  0  0  0  0  0
   -5.9296    3.0166   -1.6425 O   0  3  0  0  0  0
   -4.6206    1.0931   -1.3249 N   0  5  0  0  0  0
   -4.5211    1.0077    0.0654 C   0  0  0  0  0  0
   -3.8067   -0.0223    0.6671 C   0  0  0  0  0  0
   -3.7167   -0.0923    2.0604 C   0  0  0  0  0  0
   -4.3304    0.8528    2.8788 C   0  0  0  0  0  0
   -5.0493    1.8882    2.2594 C   0  0  0  0  0  0
   -5.1444    1.9655    0.8590 C   0  0  0  0  0  0
   -5.6484    2.8133    3.1098 C   0  0  0  0  0  0
   -5.5709    2.7595    4.4528 N   0  0  0  0  0  0
   -4.8583    1.7271    4.9314 C   0  0  0  0  0  0
   -4.2328    0.7694    4.2172 N   0  0  0  0  0  0
   -6.3900    3.8870    2.5575 N   0  0  0  0  0  0
   -7.4938    4.6164    3.0274 C   0  0  0  0  0  0
   -8.4247    4.0083    3.8697 C   0  0  0  0  0  0
   -9.5202    4.7338    4.3377 C   0  0  0  0  0  0
   -9.6849    6.0674    3.9635 C   0  0  0  0  0  0
   -8.7541    6.6754    3.1212 C   0  0  0  0  0  0
   -7.6586    5.9499    2.6531 C   0  0  0  0  0  0
  -10.7338    6.7771    4.4037 F   0  0  0  0  0  0
  -10.6673    3.9767    5.3744 Cl  0  0  0  0  0  0
   -3.1859   -0.9762   -0.0835 O   0  0  0  0  0  0
   -3.5949   -2.3246    0.1184 C   0  0  1  0  0  0
   -4.3940   -2.2591    0.8715 H   0  0  0  0  0  0
   -4.0074   -2.9414   -1.1956 C   0  0  0  0  0  0
   -2.6699   -3.2975   -1.8133 C   0  0  0  0  0  0
   -1.7744   -3.5828   -0.7302 O   0  0  0  0  0  0
   -2.3865   -3.1549    0.4988 C   0  0  0  0  0  0
   -7.4455    0.6249   -5.2493 H   0  0  0  0  0  0
   -6.7321    0.1688   -6.8335 H   0  0  0  0  0  0
   -8.4282    0.7540   -6.7474 H   0  0  0  0  0  0
   -6.5592    3.6061   -8.0538 H   0  0  0  0  0  0
   -7.9174    2.4721   -8.3636 H   0  0  0  0  0  0
   -6.2213    1.8868   -8.4497 H   0  0  0  0  0  0
   -5.0225    1.5245   -6.0925 H   0  0  0  0  0  0
   -5.1522    3.2991   -6.3391 H   0  0  0  0  0  0
   -6.3244    3.4798   -4.0739 H   0  0  0  0  0  0
   -4.5847    0.9265   -3.8732 H   0  0  0  0  0  0
   -3.1533   -0.9064    2.5138 H   0  0  0  0  0  0
   -5.7007    2.7665    0.3765 H   0  0  0  0  0  0
   -4.7758    1.6541    6.0091 H   0  0  0  0  0  0
   -6.1189    4.2930    1.5718 H   0  0  0  0  0  0
   -8.2928    2.9682    4.1603 H   0  0  0  0  0  0
   -8.8806    7.7144    2.8314 H   0  0  0  0  0  0
   -6.9388    6.4340    1.9978 H   0  0  0  0  0  0
   -4.6409   -3.8203   -1.0052 H   0  0  0  0  0  0
   -4.5711   -2.2040   -1.7859 H   0  0  0  0  0  0
   -2.7887   -4.1771   -2.4631 H   0  0  0  0  0  0
   -2.3034   -2.4485   -2.4090 H   0  0  0  0  0  0
   -1.6906   -2.5406    1.0890 H   0  0  0  0  0  0
   -2.7094   -4.0199    1.0966 H   0  0  0  0  0  0
   -6.0132    3.1884   -0.5592 H   0  0  0  0  0  0
   -7.6618    2.9136   -6.0120 H   0  0  0  0  0  0
  1  2  1  0  0  0
  1 36  1  0  0  0
  1 37  1  0  0  0
  1 38  1  0  0  0
  2  3  1  0  0  0
  2  4  1  0  0  0
  2 60  1  0  0  0
  3 39  1  0  0  0
  3 40  1  0  0  0
  3 41  1  0  0  0
  4  5  1  0  0  0
  4 42  1  0  0  0
  4 43  1  0  0  0
  5  6  2  0  0  0
  5 44  1  0  0  0
  6  7  1  0  0  0
  6 45  1  0  0  0
  7  8  2  0  0  0
  7  9  1  0  0  0
  8 59  1  0  0  0
  9 10  1  0  0  0
 10 15  2  0  0  0
 10 11  1  0  0  0
 11 12  2  0  0  0
 11 29  1  0  0  0
 12 13  1  0  0  0
 12 46  1  0  0  0
 13 19  1  0  0  0
 13 14  2  0  0  0
 14 15  1  0  0  0
 14 16  1  0  0  0
 15 47  1  0  0  0
 16 17  2  0  0  0
 16 20  1  0  0  0
 17 18  1  0  0  0
 18 19  2  0  0  0
 18 48  1  0  0  0
 20 21  1  0  0  0
 20 49  1  0  0  0
 21 26  2  0  0  0
 21 22  1  0  0  0
 22 23  2  0  0  0
 22 50  1  0  0  0
 23 24  1  0  0  0
 23 28  1  0  0  0
 24 25  2  0  0  0
 24 27  1  0  0  0
 25 26  1  0  0  0
 25 51  1  0  0  0
 26 52  1  0  0  0
 29 30  1  0  0  0
 30 31  1  0  0  0
 30 35  1  0  0  0
 30 32  1  0  0  0
 32 33  1  0  0  0
 32 53  1  0  0  0
 32 54  1  0  0  0
 33 34  1  0  0  0
 33 55  1  0  0  0
 33 56  1  0  0  0
 34 35  1  0  0  0
 35 57  1  0  0  0
 35 58  1  0  0  0
M  CHG  3   2   1   8   1   9  -1
M  END
> <s_m_source_file>
/Users/andrea/Development/mcce-charges/epik_inhibitors/output/Afatinib/Afatinib-input.mol2

> <i_m_source_file_index>
1

> <r_epik_Ionization_Penalty>
  0.0402

> <r_epik_Ionization_Penalty_Charging>
  0.0356

> <r_epik_Ionization_Penalty_Neutral>
  0.0045

> <r_epik_State_Penalty>
  2.4617

> <i_epik_Tot_Q>
1

$$$$
(~{E})-~{N}-[4-(3-chloro-4-fluoro-anilino)-7-[(3~{S})-tetrahydrofuran-3-yl]oxy-quinazolin-6-yl]-4-(dimethylamino)but-2-enamide
                    3D
 Structure written by MMmdl.
 61 64  0  0  1  0            999 V2000
   -7.4216    0.8592   -6.3224 C   0  0  0  0  0  0
   -6.9566    2.2331   -6.5093 N   0  3  0  0  0  0
   -6.9132    2.5690   -7.9319 C   0  0  0  0  0  0
   -5.6420    2.4135   -5.9023 C   0  0  0  0  0  0
   -5.7426    2.6126   -4.4193 C   0  0  0  0  0  0
   -5.1638    1.7956   -3.5279 C   0  0  0  0  0  0
   -5.2952    2.0565   -2.0634 C   0  0  0  0  0  0
   -5.9302    3.0162   -1.6425 O   0  0  0  0  0  0
   -4.6215    1.0925   -1.3249 N   0  0  0  0  0  0
   -4.5216    1.0074    0.0654 C   0  0  0  0  0  0
   -3.8074   -0.0228    0.6671 C   0  0  0  0  0  0
   -3.7161   -0.0919    2.0604 C   0  0  0  0  0  0
   -4.3304    0.8528    2.8788 C   0  0  0  0  0  0
   -5.0493    1.8882    2.2594 C   0  0  0  0  0  0
   -5.1443    1.9655    0.8590 C   0  0  0  0  0  0
   -5.6487    2.8131    3.1098 C   0  0  0  0  0  0
   -5.5715    2.7591    4.4528 N   0  0  0  0  0  0
   -4.8592    1.7265    4.9314 C   0  0  0  0  0  0
   -4.2334    0.7690    4.2172 N   0  0  0  0  0  0
   -6.3900    3.8870    2.5575 N   0  3  0  0  0  0
   -7.4938    4.6165    3.0273 C   0  0  0  0  0  0
   -8.4249    4.0084    3.8694 C   0  0  0  0  0  0
   -9.5204    4.7340    4.3373 C   0  0  0  0  0  0
   -9.6848    6.0677    3.9632 C   0  0  0  0  0  0
   -8.7538    6.6757    3.1211 C   0  0  0  0  0  0
   -7.6583    5.9501    2.6531 C   0  0  0  0  0  0
  -10.7337    6.7775    4.4033 F   0  0  0  0  0  0
  -10.6678    3.9770    5.3737 Cl  0  0  0  0  0  0
   -3.1867   -0.9767   -0.0835 O   0  0  0  0  0  0
   -3.5955   -2.3251    0.1186 C   0  0  1  0  0  0
   -4.3945   -2.2597    0.8718 H   0  0  0  0  0  0
   -4.0081   -2.9421   -1.1952 C   0  0  0  0  0  0
   -2.6707   -3.2981   -1.8131 C   0  0  0  0  0  0
   -1.7750   -3.5832   -0.7301 O   0  0  0  0  0  0
   -2.3869   -3.1553    0.4989 C   0  0  0  0  0  0
   -7.4480    0.6240   -5.2482 H   0  0  0  0  0  0
   -6.7353    0.1673   -6.8325 H   0  0  0  0  0  0
   -8.4312    0.7530   -6.7459 H   0  0  0  0  0  0
   -6.5619    3.6042   -8.0537 H   0  0  0  0  0  0
   -7.9206    2.4705   -8.3628 H   0  0  0  0  0  0
   -6.2246    1.8848   -8.4493 H   0  0  0  0  0  0
   -5.0251    1.5228   -6.0925 H   0  0  0  0  0  0
   -5.1544    3.2973   -6.3395 H   0  0  0  0  0  0
   -6.3257    3.4789   -4.0739 H   0  0  0  0  0  0
   -4.5866    0.9252   -3.8731 H   0  0  0  0  0  0
   -4.0881    0.2792   -1.8388 H   0  0  0  0  0  0
   -3.2020   -0.8334    2.4916 H   0  0  0  0  0  0
   -5.6596    2.7093    0.4332 H   0  0  0  0  0  0
   -4.7501    1.6091    5.9185 H   0  0  0  0  0  0
   -3.6642   -0.0523    4.6771 H   0  0  0  0  0  0
   -8.2932    2.9683    4.1599 H   0  0  0  0  0  0
   -8.8801    7.7147    2.8314 H   0  0  0  0  0  0
   -6.9384    6.4341    1.9980 H   0  0  0  0  0  0
   -4.6415   -3.8210   -1.0047 H   0  0  0  0  0  0
   -4.5720   -2.2049   -1.7855 H   0  0  0  0  0  0
   -2.7895   -4.1778   -2.4628 H   0  0  0  0  0  0
   -2.3044   -2.4491   -2.4089 H   0  0  0  0  0  0
   -1.6910   -2.5408    1.0889 H   0  0  0  0  0  0
   -2.7097   -4.0203    1.0969 H   0  0  0  0  0  0
   -6.1187    4.2931    1.5719 H   0  0  0  0  0  0
   -7.6640    2.9126   -6.0113 H   0  0  0  0  0  0
  1  2  1  0  0  0
  1 36  1  0  0  0
  1 37  1  0  0  0
  1 38  1  0  0  0
  2  3  1  0  0  0
  2  4  1  0  0  0
  2 61  1  0  0  0
  3 39  1  0  0  0
  3 40  1  0  0  0
  3 41  1  0  0  0
  4  5  1  0  0  0
  4 42  1  0  0  0
  4 43  1  0  0  0
  5  6  2  0  0  0
  5 44  1  0  0  0
  6  7  1  0  0  0
  6 45  1  0  0  0
  7  8  2  0  0  0
  7  9  1  0  0  0
  9 46  1  0  0  0
  9 10  1  0  0  0
 10 15  2  0  0  0
 10 11  1  0  0  0
 11 29  1  0  0  0
 11 12  2  0  0  0
 12 47  1  0  0  0
 12 13  1  0  0  0
 13 14  2  0  0  0
 13 19  1  0  0  0
 14 16  1  0  0  0
 14 15  1  0  0  0
 15 48  1  0  0  0
 16 20  2  0  0  0
 16 17  1  0  0  0
 17 18  2  0  0  0
 18 19  1  0  0  0
 18 49  1  0  0  0
 19 50  1  0  0  0
 20 21  1  0  0  0
 20 60  1  0  0  0
 21 26  2  0  0  0
 21 22  1  0  0  0
 22 23  2  0  0  0
 22 51  1  0  0  0
 23 24  1  0  0  0
 23 28  1  0  0  0
 24 25  2  0  0  0
 24 27  1  0  0  0
 25 26  1  0  0  0
 25 52  1  0  0  0
 26 53  1  0  0  0
 29 30  1  0  0  0
 30 31  1  0  0  0
 30 35  1  0  0  0
 30 32  1  0  0  0
 32 33  1  0  0  0
 32 54  1  0  0  0
 32 55  1  0  0  0
 33 34  1  0  0  0
 33 56  1  0  0  0
 33 57  1  0  0  0
 34 35  1  0  0  0
 35 58  1  0  0  0
 35 59  1  0  0  0
M  CHG  2   2   1  20   1
M  END
> <s_m_source_file>
/Users/andrea/Development/mcce-charges/epik_inhibitors/output/Afatinib/Afatinib-input.mol2

> <i_m_source_file_index>
1

> <r_epik_Ionization_Penalty>
  0.5757

> <r_epik_Ionization_Penalty_Charging>
  0.3696

> <r_epik_Ionization_Penalty_Neutral>
  0.2061

> <r_epik_State_Penalty>
  2.5932

> <i_epik_Tot_Q>
2

> <s_epik_Chemistry_Notes>
This compound has an imine and may undergo hydrolysis.

$$$$
(~{E})-~{N}-[4-(3-chloro-4-fluoro-anilino)-7-[(3~{S})-tetrahydrofuran-3-yl]oxy-quinazolin-6-yl]-4-(dimethylamino)but-2-enamide
                    3D
 Structure written by MMmdl.
 61 64  0  0  1  0            999 V2000
   -7.4216    0.8592   -6.3224 C   0  0  0  0  0  0
   -6.9566    2.2331   -6.5093 N   0  3  0  0  0  0
   -6.9132    2.5690   -7.9319 C   0  0  0  0  0  0
   -5.6420    2.4135   -5.9023 C   0  0  0  0  0  0
   -5.7426    2.6126   -4.4193 C   0  0  0  0  0  0
   -5.1638    1.7956   -3.5279 C   0  0  0  0  0  0
   -5.2952    2.0565   -2.0634 C   0  0  0  0  0  0
   -5.9302    3.0162   -1.6425 O   0  0  0  0  0  0
   -4.6215    1.0925   -1.3249 N   0  0  0  0  0  0
   -4.5216    1.0074    0.0654 C   0  0  0  0  0  0
   -3.8074   -0.0228    0.6671 C   0  0  0  0  0  0
   -3.7161   -0.0919    2.0604 C   0  0  0  0  0  0
   -4.3304    0.8528    2.8788 C   0  0  0  0  0  0
   -5.0493    1.8882    2.2594 C   0  0  0  0  0  0
   -5.1443    1.9655    0.8590 C   0  0  0  0  0  0
   -5.6487    2.8131    3.1098 C   0  0  0  0  0  0
   -5.5715    2.7591    4.4528 N   0  0  0  0  0  0
   -4.8592    1.7265    4.9314 C   0  0  0  0  0  0
   -4.2334    0.7690    4.2172 N   0  0  0  0  0  0
   -6.3900    3.8870    2.5575 N   0  3  0  0  0  0
   -6.2774    4.5932    1.3493 C   0  0  0  0  0  0
   -5.0304    4.7437    0.7426 C   0  0  0  0  0  0
   -4.9192    5.4439   -0.4586 C   0  0  0  0  0  0
   -6.0550    5.9936   -1.0532 C   0  0  0  0  0  0
   -7.3019    5.8432   -0.4465 C   0  0  0  0  0  0
   -7.4131    5.1430    0.7548 C   0  0  0  0  0  0
   -5.9637    6.6709   -2.2067 F   0  0  0  0  0  0
   -3.3769    5.6289   -1.2008 Cl  0  0  0  0  0  0
   -3.1867   -0.9767   -0.0835 O   0  0  0  0  0  0
   -3.5955   -2.3251    0.1186 C   0  0  1  0  0  0
   -4.3945   -2.2597    0.8718 H   0  0  0  0  0  0
   -4.0081   -2.9421   -1.1952 C   0  0  0  0  0  0
   -2.6707   -3.2981   -1.8131 C   0  0  0  0  0  0
   -1.7750   -3.5832   -0.7301 O   0  0  0  0  0  0
   -2.3869   -3.1553    0.4989 C   0  0  0  0  0  0
   -7.4480    0.6240   -5.2482 H   0  0  0  0  0  0
   -6.7353    0.1673   -6.8325 H   0  0  0  0  0  0
   -8.4312    0.7530   -6.7459 H   0  0  0  0  0  0
   -6.5619    3.6042   -8.0537 H   0  0  0  0  0  0
   -7.9206    2.4705   -8.3628 H   0  0  0  0  0  0
   -6.2246    1.8848   -8.4493 H   0  0  0  0  0  0
   -5.0251    1.5228   -6.0925 H   0  0  0  0  0  0
   -5.1544    3.2973   -6.3395 H   0  0  0  0  0  0
   -6.3257    3.4789   -4.0739 H   0  0  0  0  0  0
   -4.5866    0.9252   -3.8731 H   0  0  0  0  0  0
   -4.0881    0.2792   -1.8388 H   0  0  0  0  0  0
   -3.2020   -0.8334    2.4916 H   0  0  0  0  0  0
   -5.6596    2.7093    0.4332 H   0  0  0  0  0  0
   -4.7501    1.6091    5.9185 H   0  0  0  0  0  0
   -3.6642   -0.0523    4.6771 H   0  0  0  0  0  0
   -4.1467    4.3130    1.2085 H   0  0  0  0  0  0
   -8.1868    6.2690   -0.9102 H   0  0  0  0  0  0
   -8.3900    5.0311    1.2185 H   0  0  0  0  0  0
   -4.6415   -3.8210   -1.0047 H   0  0  0  0  0  0
   -4.5720   -2.2049   -1.7855 H   0  0  0  0  0  0
   -2.7895   -4.1778   -2.4628 H   0  0  0  0  0  0
   -2.3044   -2.4491   -2.4089 H   0  0  0  0  0  0
   -1.6910   -2.5408    1.0889 H   0  0  0  0  0  0
   -2.7097   -4.0203    1.0969 H   0  0  0  0  0  0
   -7.2369    4.3145    3.1144 H   0  0  0  0  0  0
   -7.6640    2.9126   -6.0113 H   0  0  0  0  0  0
  1  2  1  0  0  0
  1 36  1  0  0  0
  1 37  1  0  0  0
  1 38  1  0  0  0
  2  3  1  0  0  0
  2  4  1  0  0  0
  2 61  1  0  0  0
  3 39  1  0  0  0
  3 40  1  0  0  0
  3 41  1  0  0  0
  4  5  1  0  0  0
  4 42  1  0  0  0
  4 43  1  0  0  0
  5  6  2  0  0  0
  5 44  1  0  0  0
  6  7  1  0  0  0
  6 45  1  0  0  0
  7  8  2  0  0  0
  7  9  1  0  0  0
  9 46  1  0  0  0
  9 10  1  0  0  0
 10 15  2  0  0  0
 10 11  1  0  0  0
 11 29  1  0  0  0
 11 12  2  0  0  0
 12 47  1  0  0  0
 12 13  1  0  0  0
 13 14  2  0  0  0
 13 19  1  0  0  0
 14 16  1  0  0  0
 14 15  1  0  0  0
 15 48  1  0  0  0
 16 20  2  0  0  0
 16 17  1  0  0  0
 17 18  2  0  0  0
 18 19  1  0  0  0
 18 49  1  0  0  0
 19 50  1  0  0  0
 20 21  1  0  0  0
 20 60  1  0  0  0
 21 26  2  0  0  0
 21 22  1  0  0  0
 22 23  2  0  0  0
 22 51  1  0  0  0
 23 24  1  0  0  0
 23 28  1  0  0  0
 24 25  2  0  0  0
 24 27  1  0  0  0
 25 26  1  0  0  0
 25 52  1  0  0  0
 26 53  1  0  0  0
 29 30  1  0  0  0
 30 31  1  0  0  0
 30 35  1  0  0  0
 30 32  1  0  0  0
 32 33  1  0  0  0
 32 54  1  0  0  0
 32 55  1  0  0  0
 33 34  1  0  0  0
 33 56  1  0  0  0
 33 57  1  0  0  0
 34 35  1  0  0  0
 35 58  1  0  0  0
 35 59  1  0  0  0
M  CHG  2   2   1  20   1
M  END
> <s_m_source_file>
/Users/andrea/Development/mcce-charges/epik_inhibitors/output/Afatinib/Afatinib-input.mol2

> <i_m_source_file_index>
1

> <r_epik_Ionization_Penalty>
  0.5757

> <r_epik_Ionization_Penalty_Charging>
  0.3696

> <r_epik_Ionization_Penalty_Neutral>
  0.2061

> <r_epik_State_Penalty>
  2.5932

> <i_epik_Tot_Q>
2

> <s_epik_Chemistry_Notes>
This compound has an imine and may undergo hydrolysis.

$$$$
(~{E})-~{N}-[4-(3-chloro-4-fluoro-anilino)-7-[(3~{S})-tetrahydrofuran-3-yl]oxy-quinazolin-6-yl]-4-(dimethylamino)but-2-enamide
                    3D
 Structure written by MMmdl.
 60 63  0  0  1  0            999 V2000
   -7.4216    0.8592   -6.3224 C   0  0  0  0  0  0
   -6.9566    2.2331   -6.5093 N   0  0  0  0  0  0
   -6.9132    2.5690   -7.9319 C   0  0  0  0  0  0
   -5.6420    2.4135   -5.9023 C   0  0  0  0  0  0
   -5.7426    2.6126   -4.4193 C   0  0  0  0  0  0
   -5.1638    1.7956   -3.5279 C   0  0  0  0  0  0
   -5.2952    2.0565   -2.0634 C   0  0  0  0  0  0
   -5.9302    3.0162   -1.6425 O   0  0  0  0  0  0
   -4.6215    1.0925   -1.3249 N   0  0  0  0  0  0
   -4.5216    1.0074    0.0654 C   0  0  0  0  0  0
   -3.8074   -0.0228    0.6671 C   0  0  0  0  0  0
   -3.7161   -0.0919    2.0604 C   0  0  0  0  0  0
   -4.3304    0.8528    2.8788 C   0  0  0  0  0  0
   -5.0493    1.8882    2.2594 C   0  0  0  0  0  0
   -5.1443    1.9655    0.8590 C   0  0  0  0  0  0
   -5.6487    2.8131    3.1098 C   0  0  0  0  0  0
   -5.5715    2.7591    4.4528 N   0  0  0  0  0  0
   -4.8592    1.7265    4.9314 C   0  0  0  0  0  0
   -4.2334    0.7690    4.2172 N   0  0  0  0  0  0
   -6.3900    3.8870    2.5575 N   0  3  0  0  0  0
   -7.4938    4.6165    3.0273 C   0  0  0  0  0  0
   -8.4249    4.0084    3.8694 C   0  0  0  0  0  0
   -9.5204    4.7340    4.3373 C   0  0  0  0  0  0
   -9.6848    6.0677    3.9632 C   0  0  0  0  0  0
   -8.7538    6.6757    3.1211 C   0  0  0  0  0  0
   -7.6583    5.9501    2.6531 C   0  0  0  0  0  0
  -10.7337    6.7775    4.4033 F   0  0  0  0  0  0
  -10.6678    3.9770    5.3737 Cl  0  0  0  0  0  0
   -3.1867   -0.9767   -0.0835 O   0  0  0  0  0  0
   -3.5955   -2.3251    0.1186 C   0  0  1  0  0  0
   -4.3945   -2.2597    0.8718 H   0  0  0  0  0  0
   -4.0081   -2.9421   -1.1952 C   0  0  0  0  0  0
   -2.6707   -3.2981   -1.8131 C   0  0  0  0  0  0
   -1.7750   -3.5832   -0.7301 O   0  0  0  0  0  0
   -2.3869   -3.1553    0.4989 C   0  0  0  0  0  0
   -7.4480    0.6240   -5.2482 H   0  0  0  0  0  0
   -6.7353    0.1673   -6.8325 H   0  0  0  0  0  0
   -8.4312    0.7530   -6.7459 H   0  0  0  0  0  0
   -6.5619    3.6042   -8.0537 H   0  0  0  0  0  0
   -7.9206    2.4705   -8.3628 H   0  0  0  0  0  0
   -6.2246    1.8848   -8.4493 H   0  0  0  0  0  0
   -5.0251    1.5228   -6.0925 H   0  0  0  0  0  0
   -5.1544    3.2973   -6.3395 H   0  0  0  0  0  0
   -6.3257    3.4789   -4.0739 H   0  0  0  0  0  0
   -4.5866    0.9252   -3.8731 H   0  0  0  0  0  0
   -4.0881    0.2792   -1.8388 H   0  0  0  0  0  0
   -3.2020   -0.8334    2.4916 H   0  0  0  0  0  0
   -5.6596    2.7093    0.4332 H   0  0  0  0  0  0
   -4.7501    1.6091    5.9185 H   0  0  0  0  0  0
   -3.6642   -0.0523    4.6771 H   0  0  0  0  0  0
   -8.2932    2.9683    4.1599 H   0  0  0  0  0  0
   -8.8801    7.7147    2.8314 H   0  0  0  0  0  0
   -6.9384    6.4341    1.9980 H   0  0  0  0  0  0
   -4.6415   -3.8210   -1.0047 H   0  0  0  0  0  0
   -4.5720   -2.2049   -1.7855 H   0  0  0  0  0  0
   -2.7895   -4.1778   -2.4628 H   0  0  0  0  0  0
   -2.3044   -2.4491   -2.4089 H   0  0  0  0  0  0
   -1.6910   -2.5408    1.0889 H   0  0  0  0  0  0
   -2.7097   -4.0203    1.0969 H   0  0  0  0  0  0
   -6.1187    4.2931    1.5719 H   0  0  0  0  0  0
  1  2  1  0  0  0
  1 36  1  0  0  0
  1 37  1  0  0  0
  1 38  1  0  0  0
  2  3  1  0  0  0
  2  4  1  0  0  0
  3 39  1  0  0  0
  3 40  1  0  0  0
  3 41  1  0  0  0
  4  5  1  0  0  0
  4 42  1  0  0  0
  4 43  1  0  0  0
  5  6  2  0  0  0
  5 44  1  0  0  0
  6  7  1  0  0  0
  6 45  1  0  0  0
  7  8  2  0  0  0
  7  9  1  0  0  0
  9 46  1  0  0  0
  9 10  1  0  0  0
 10 15  2  0  0  0
 10 11  1  0  0  0
 11 29  1  0  0  0
 11 12  2  0  0  0
 12 47  1  0  0  0
 12 13  1  0  0  0
 13 14  2  0  0  0
 13 19  1  0  0  0
 14 16  1  0  0  0
 14 15  1  0  0  0
 15 48  1  0  0  0
 16 20  2  0  0  0
 16 17  1  0  0  0
 17 18  2  0  0  0
 18 19  1  0  0  0
 18 49  1  0  0  0
 19 50  1  0  0  0
 20 21  1  0  0  0
 20 60  1  0  0  0
 21 26  2  0  0  0
 21 22  1  0  0  0
 22 23  2  0  0  0
 22 51  1  0  0  0
 23 24  1  0  0  0
 23 28  1  0  0  0
 24 25  2  0  0  0
 24 27  1  0  0  0
 25 26  1  0  0  0
 25 52  1  0  0  0
 26 53  1  0  0  0
 29 30  1  0  0  0
 30 31  1  0  0  0
 30 35  1  0  0  0
 30 32  1  0  0  0
 32 33  1  0  0  0
 32 54  1  0  0  0
 32 55  1  0  0  0
 33 34  1  0  0  0
 33 56  1  0  0  0
 33 57  1  0  0  0
 34 35  1  0  0  0
 35 58  1  0  0  0
 35 59  1  0  0  0
M  CHG  1  20   1
M  END
> <s_m_source_file>
/Users/andrea/Development/mcce-charges/epik_inhibitors/output/Afatinib/Afatinib-input.mol2

> <i_m_source_file_index>
1

> <r_epik_Ionization_Penalty>
  0.6332

> <r_epik_Ionization_Penalty_Charging>
  0.0003

> <r_epik_Ionization_Penalty_Neutral>
  0.6329

> <r_epik_State_Penalty>
  2.7582

> <i_epik_Tot_Q>
1

> <s_epik_Chemistry_Notes>
This compound has an imine and may undergo hydrolysis.

$$$$
(~{E})-~{N}-[4-(3-chloro-4-fluoro-anilino)-7-[(3~{S})-tetrahydrofuran-3-yl]oxy-quinazolin-6-yl]-4-(dimethylamino)but-2-enamide
                    3D
 Structure written by MMmdl.
 60 63  0  0  1  0            999 V2000
   -7.4216    0.8592   -6.3224 C   0  0  0  0  0  0
   -6.9566    2.2331   -6.5093 N   0  0  0  0  0  0
   -6.9132    2.5690   -7.9319 C   0  0  0  0  0  0
   -5.6420    2.4135   -5.9023 C   0  0  0  0  0  0
   -5.7426    2.6126   -4.4193 C   0  0  0  0  0  0
   -5.1638    1.7956   -3.5279 C   0  0  0  0  0  0
   -5.2952    2.0565   -2.0634 C   0  0  0  0  0  0
   -5.9302    3.0162   -1.6425 O   0  0  0  0  0  0
   -4.6215    1.0925   -1.3249 N   0  0  0  0  0  0
   -4.5216    1.0074    0.0654 C   0  0  0  0  0  0
   -3.8074   -0.0228    0.6671 C   0  0  0  0  0  0
   -3.7161   -0.0919    2.0604 C   0  0  0  0  0  0
   -4.3304    0.8528    2.8788 C   0  0  0  0  0  0
   -5.0493    1.8882    2.2594 C   0  0  0  0  0  0
   -5.1443    1.9655    0.8590 C   0  0  0  0  0  0
   -5.6487    2.8131    3.1098 C   0  0  0  0  0  0
   -5.5715    2.7591    4.4528 N   0  0  0  0  0  0
   -4.8592    1.7265    4.9314 C   0  0  0  0  0  0
   -4.2334    0.7690    4.2172 N   0  0  0  0  0  0
   -6.3900    3.8870    2.5575 N   0  3  0  0  0  0
   -6.2774    4.5932    1.3493 C   0  0  0  0  0  0
   -5.0304    4.7437    0.7426 C   0  0  0  0  0  0
   -4.9192    5.4439   -0.4586 C   0  0  0  0  0  0
   -6.0550    5.9936   -1.0532 C   0  0  0  0  0  0
   -7.3019    5.8432   -0.4465 C   0  0  0  0  0  0
   -7.4131    5.1430    0.7548 C   0  0  0  0  0  0
   -5.9637    6.6709   -2.2067 F   0  0  0  0  0  0
   -3.3769    5.6289   -1.2008 Cl  0  0  0  0  0  0
   -3.1867   -0.9767   -0.0835 O   0  0  0  0  0  0
   -3.5955   -2.3251    0.1186 C   0  0  1  0  0  0
   -4.3945   -2.2597    0.8718 H   0  0  0  0  0  0
   -4.0081   -2.9421   -1.1952 C   0  0  0  0  0  0
   -2.6707   -3.2981   -1.8131 C   0  0  0  0  0  0
   -1.7750   -3.5832   -0.7301 O   0  0  0  0  0  0
   -2.3869   -3.1553    0.4989 C   0  0  0  0  0  0
   -7.4480    0.6240   -5.2482 H   0  0  0  0  0  0
   -6.7353    0.1673   -6.8325 H   0  0  0  0  0  0
   -8.4312    0.7530   -6.7459 H   0  0  0  0  0  0
   -6.5619    3.6042   -8.0537 H   0  0  0  0  0  0
   -7.9206    2.4705   -8.3628 H   0  0  0  0  0  0
   -6.2246    1.8848   -8.4493 H   0  0  0  0  0  0
   -5.0251    1.5228   -6.0925 H   0  0  0  0  0  0
   -5.1544    3.2973   -6.3395 H   0  0  0  0  0  0
   -6.3257    3.4789   -4.0739 H   0  0  0  0  0  0
   -4.5866    0.9252   -3.8731 H   0  0  0  0  0  0
   -4.0881    0.2792   -1.8388 H   0  0  0  0  0  0
   -3.2020   -0.8334    2.4916 H   0  0  0  0  0  0
   -5.6596    2.7093    0.4332 H   0  0  0  0  0  0
   -4.7501    1.6091    5.9185 H   0  0  0  0  0  0
   -3.6642   -0.0523    4.6771 H   0  0  0  0  0  0
   -4.1467    4.3130    1.2085 H   0  0  0  0  0  0
   -8.1868    6.2690   -0.9102 H   0  0  0  0  0  0
   -8.3900    5.0311    1.2185 H   0  0  0  0  0  0
   -4.6415   -3.8210   -1.0047 H   0  0  0  0  0  0
   -4.5720   -2.2049   -1.7855 H   0  0  0  0  0  0
   -2.7895   -4.1778   -2.4628 H   0  0  0  0  0  0
   -2.3044   -2.4491   -2.4089 H   0  0  0  0  0  0
   -1.6910   -2.5408    1.0889 H   0  0  0  0  0  0
   -2.7097   -4.0203    1.0969 H   0  0  0  0  0  0
   -7.2369    4.3145    3.1144 H   0  0  0  0  0  0
  1  2  1  0  0  0
  1 36  1  0  0  0
  1 37  1  0  0  0
  1 38  1  0  0  0
  2  3  1  0  0  0
  2  4  1  0  0  0
  3 39  1  0  0  0
  3 40  1  0  0  0
  3 41  1  0  0  0
  4  5  1  0  0  0
  4 42  1  0  0  0
  4 43  1  0  0  0
  5  6  2  0  0  0
  5 44  1  0  0  0
  6  7  1  0  0  0
  6 45  1  0  0  0
  7  8  2  0  0  0
  7  9  1  0  0  0
  9 46  1  0  0  0
  9 10  1  0  0  0
 10 15  2  0  0  0
 10 11  1  0  0  0
 11 29  1  0  0  0
 11 12  2  0  0  0
 12 47  1  0  0  0
 12 13  1  0  0  0
 13 14  2  0  0  0
 13 19  1  0  0  0
 14 16  1  0  0  0
 14 15  1  0  0  0
 15 48  1  0  0  0
 16 20  2  0  0  0
 16 17  1  0  0  0
 17 18  2  0  0  0
 18 19  1  0  0  0
 18 49  1  0  0  0
 19 50  1  0  0  0
 20 21  1  0  0  0
 20 60  1  0  0  0
 21 26  2  0  0  0
 21 22  1  0  0  0
 22 23  2  0  0  0
 22 51  1  0  0  0
 23 24  1  0  0  0
 23 28  1  0  0  0
 24 25  2  0  0  0
 24 27  1  0  0  0
 25 26  1  0  0  0
 25 52  1  0  0  0
 26 53  1  0  0  0
 29 30  1  0  0  0
 30 31  1  0  0  0
 30 35  1  0  0  0
 30 32  1  0  0  0
 32 33  1  0  0  0
 32 54  1  0  0  0
 32 55  1  0  0  0
 33 34  1  0  0  0
 33 56  1  0  0  0
 33 57  1  0  0  0
 34 35  1  0  0  0
 35 58  1  0  0  0
 35 59  1  0  0  0
M  CHG  1  20   1
M  END
> <s_m_source_file>
/Users/andrea/Development/mcce-charges/epik_inhibitors/output/Afatinib/Afatinib-input.mol2

> <i_m_source_file_index>
1

> <r_epik_Ionization_Penalty>
  0.6332

> <r_epik_Ionization_Penalty_Charging>
  0.0003

> <r_epik_Ionization_Penalty_Neutral>
  0.6329

> <r_epik_State_Penalty>
  2.7582

> <i_epik_Tot_Q>
1

> <s_epik_Chemistry_Notes>
This compound has an imine and may undergo hydrolysis.

$$$$
(~{E})-~{N}-[4-(3-chloro-4-fluoro-anilino)-7-[(3~{S})-tetrahydrofuran-3-yl]oxy-quinazolin-6-yl]-4-(dimethylamino)but-2-enamide
                    3D
 Structure written by MMmdl.
 59 62  0  0  1  0            999 V2000
   -7.4188    0.8604   -6.3235 C   0  0  0  0  0  0
   -6.9541    2.2345   -6.5099 N   0  0  0  0  0  0
   -6.9103    2.5707   -7.9324 C   0  0  0  0  0  0
   -5.6397    2.4150   -5.9024 C   0  0  0  0  0  0
   -5.7409    2.6137   -4.4194 C   0  0  0  0  0  0
   -5.1622    1.7967   -3.5279 C   0  0  0  0  0  0
   -5.2942    2.0572   -2.0634 C   0  0  0  0  0  0
   -5.9296    3.0166   -1.6425 O   0  3  0  0  0  0
   -4.6206    1.0931   -1.3249 N   0  5  0  0  0  0
   -4.5211    1.0077    0.0654 C   0  0  0  0  0  0
   -3.8067   -0.0223    0.6671 C   0  0  0  0  0  0
   -3.7167   -0.0923    2.0604 C   0  0  0  0  0  0
   -4.3304    0.8528    2.8788 C   0  0  0  0  0  0
   -5.0493    1.8882    2.2594 C   0  0  0  0  0  0
   -5.1444    1.9655    0.8590 C   0  0  0  0  0  0
   -5.6484    2.8133    3.1098 C   0  0  0  0  0  0
   -5.5709    2.7595    4.4528 N   0  0  0  0  0  0
   -4.8583    1.7271    4.9314 C   0  0  0  0  0  0
   -4.2328    0.7694    4.2172 N   0  0  0  0  0  0
   -6.3900    3.8870    2.5575 N   0  0  0  0  0  0
   -7.4938    4.6164    3.0274 C   0  0  0  0  0  0
   -8.4247    4.0083    3.8697 C   0  0  0  0  0  0
   -9.5202    4.7338    4.3377 C   0  0  0  0  0  0
   -9.6849    6.0674    3.9635 C   0  0  0  0  0  0
   -8.7541    6.6754    3.1212 C   0  0  0  0  0  0
   -7.6586    5.9499    2.6531 C   0  0  0  0  0  0
  -10.7338    6.7771    4.4037 F   0  0  0  0  0  0
  -10.6673    3.9767    5.3744 Cl  0  0  0  0  0  0
   -3.1859   -0.9762   -0.0835 O   0  0  0  0  0  0
   -3.5949   -2.3246    0.1184 C   0  0  1  0  0  0
   -4.3940   -2.2591    0.8715 H   0  0  0  0  0  0
   -4.0074   -2.9414   -1.1956 C   0  0  0  0  0  0
   -2.6699   -3.2975   -1.8133 C   0  0  0  0  0  0
   -1.7744   -3.5828   -0.7302 O   0  0  0  0  0  0
   -2.3865   -3.1549    0.4988 C   0  0  0  0  0  0
   -7.4455    0.6249   -5.2493 H   0  0  0  0  0  0
   -6.7321    0.1688   -6.8335 H   0  0  0  0  0  0
   -8.4282    0.7540   -6.7474 H   0  0  0  0  0  0
   -6.5592    3.6061   -8.0538 H   0  0  0  0  0  0
   -7.9174    2.4721   -8.3636 H   0  0  0  0  0  0
   -6.2213    1.8868   -8.4497 H   0  0  0  0  0  0
   -5.0225    1.5245   -6.0925 H   0  0  0  0  0  0
   -5.1522    3.2991   -6.3391 H   0  0  0  0  0  0
   -6.3244    3.4798   -4.0739 H   0  0  0  0  0  0
   -4.5847    0.9265   -3.8732 H   0  0  0  0  0  0
   -3.1533   -0.9064    2.5138 H   0  0  0  0  0  0
   -5.7007    2.7665    0.3765 H   0  0  0  0  0  0
   -4.7758    1.6541    6.0091 H   0  0  0  0  0  0
   -6.1189    4.2930    1.5718 H   0  0  0  0  0  0
   -8.2928    2.9682    4.1603 H   0  0  0  0  0  0
   -8.8806    7.7144    2.8314 H   0  0  0  0  0  0
   -6.9388    6.4340    1.9978 H   0  0  0  0  0  0
   -4.6409   -3.8203   -1.0052 H   0  0  0  0  0  0
   -4.5711   -2.2040   -1.7859 H   0  0  0  0  0  0
   -2.7887   -4.1771   -2.4631 H   0  0  0  0  0  0
   -2.3034   -2.4485   -2.4090 H   0  0  0  0  0  0
   -1.6906   -2.5406    1.0890 H   0  0  0  0  0  0
   -2.7094   -4.0199    1.0966 H   0  0  0  0  0  0
   -6.0132    3.1884   -0.5592 H   0  0  0  0  0  0
  1  2  1  0  0  0
  1 36  1  0  0  0
  1 37  1  0  0  0
  1 38  1  0  0  0
  2  3  1  0  0  0
  2  4  1  0  0  0
  3 39  1  0  0  0
  3 40  1  0  0  0
  3 41  1  0  0  0
  4  5  1  0  0  0
  4 42  1  0  0  0
  4 43  1  0  0  0
  5  6  2  0  0  0
  5 44  1  0  0  0
  6  7  1  0  0  0
  6 45  1  0  0  0
  7  8  2  0  0  0
  7  9  1  0  0  0
  8 59  1  0  0  0
  9 10  1  0  0  0
 10 15  2  0  0  0
 10 11  1  0  0  0
 11 12  2  0  0  0
 11 29  1  0  0  0
 12 13  1  0  0  0
 12 46  1  0  0  0
 13 19  1  0  0  0
 13 14  2  0  0  0
 14 15  1  0  0  0
 14 16  1  0  0  0
 15 47  1  0  0  0
 16 17  2  0  0  0
 16 20  1  0  0  0
 17 18  1  0  0  0
 18 19  2  0  0  0
 18 48  1  0  0  0
 20 21  1  0  0  0
 20 49  1  0  0  0
 21 26  2  0  0  0
 21 22  1  0  0  0
 22 23  2  0  0  0
 22 50  1  0  0  0
 23 24  1  0  0  0
 23 28  1  0  0  0
 24 25  2  0  0  0
 24 27  1  0  0  0
 25 26  1  0  0  0
 25 51  1  0  0  0
 26 52  1  0  0  0
 29 30  1  0  0  0
 30 31  1  0  0  0
 30 35  1  0  0  0
 30 32  1  0  0  0
 32 33  1  0  0  0
 32 53  1  0  0  0
 32 54  1  0  0  0
 33 34  1  0  0  0
 33 55  1  0  0  0
 33 56  1  0  0  0
 34 35  1  0  0  0
 35 57  1  0  0  0
 35 58  1  0  0  0
M  CHG  2   8   1   9  -1
M  END
> <s_m_source_file>
/Users/andrea/Development/mcce-charges/epik_inhibitors/output/Afatinib/Afatinib-input.mol2

> <i_m_source_file_index>
1

> <r_epik_Ionization_Penalty>
  1.7305

> <r_epik_Ionization_Penalty_Charging>
  0.0112

> <r_epik_Ionization_Penalty_Neutral>
  1.7193

> <r_epik_State_Penalty>
  3.8113

> <i_epik_Tot_Q>
0

$$$$
(~{E})-~{N}-[4-(3-chloro-4-fluoro-anilino)-7-[(3~{S})-tetrahydrofuran-3-yl]oxy-quinazolin-6-yl]-4-(dimethylamino)but-2-enamide
                    3D
 Structure written by MMmdl.
 61 64  0  0  1  0            999 V2000
   -7.4216    0.8592   -6.3224 C   0  0  0  0  0  0
   -6.9566    2.2331   -6.5093 N   0  3  0  0  0  0
   -6.9132    2.5690   -7.9319 C   0  0  0  0  0  0
   -5.6420    2.4135   -5.9023 C   0  0  0  0  0  0
   -5.7426    2.6126   -4.4193 C   0  0  0  0  0  0
   -5.1638    1.7956   -3.5279 C   0  0  0  0  0  0
   -5.2952    2.0565   -2.0634 C   0  0  0  0  0  0
   -5.9302    3.0162   -1.6425 O   0  3  0  0  0  0
   -4.6215    1.0925   -1.3249 N   0  5  0  0  0  0
   -4.5216    1.0074    0.0654 C   0  0  0  0  0  0
   -3.8074   -0.0228    0.6671 C   0  0  0  0  0  0
   -3.7161   -0.0919    2.0604 C   0  0  0  0  0  0
   -4.3304    0.8528    2.8788 C   0  0  0  0  0  0
   -5.0493    1.8882    2.2594 C   0  0  0  0  0  0
   -5.1443    1.9655    0.8590 C   0  0  0  0  0  0
   -5.6487    2.8131    3.1098 C   0  0  0  0  0  0
   -5.5715    2.7591    4.4528 N   0  0  0  0  0  0
   -4.8592    1.7265    4.9314 C   0  0  0  0  0  0
   -4.2334    0.7690    4.2172 N   0  0  0  0  0  0
   -6.3900    3.8870    2.5575 N   0  3  0  0  0  0
   -7.4938    4.6165    3.0273 C   0  0  0  0  0  0
   -8.4249    4.0084    3.8694 C   0  0  0  0  0  0
   -9.5204    4.7340    4.3373 C   0  0  0  0  0  0
   -9.6848    6.0677    3.9632 C   0  0  0  0  0  0
   -8.7538    6.6757    3.1211 C   0  0  0  0  0  0
   -7.6583    5.9501    2.6531 C   0  0  0  0  0  0
  -10.7337    6.7775    4.4033 F   0  0  0  0  0  0
  -10.6678    3.9770    5.3737 Cl  0  0  0  0  0  0
   -3.1867   -0.9767   -0.0835 O   0  0  0  0  0  0
   -3.5955   -2.3251    0.1186 C   0  0  1  0  0  0
   -4.3945   -2.2597    0.8718 H   0  0  0  0  0  0
   -4.0081   -2.9421   -1.1952 C   0  0  0  0  0  0
   -2.6707   -3.2981   -1.8131 C   0  0  0  0  0  0
   -1.7750   -3.5832   -0.7301 O   0  0  0  0  0  0
   -2.3869   -3.1553    0.4989 C   0  0  0  0  0  0
   -7.4480    0.6240   -5.2482 H   0  0  0  0  0  0
   -6.7353    0.1673   -6.8325 H   0  0  0  0  0  0
   -8.4312    0.7530   -6.7459 H   0  0  0  0  0  0
   -6.5619    3.6042   -8.0537 H   0  0  0  0  0  0
   -7.9206    2.4705   -8.3628 H   0  0  0  0  0  0
   -6.2246    1.8848   -8.4493 H   0  0  0  0  0  0
   -5.0251    1.5228   -6.0925 H   0  0  0  0  0  0
   -5.1544    3.2973   -6.3395 H   0  0  0  0  0  0
   -6.3257    3.4789   -4.0739 H   0  0  0  0  0  0
   -4.5866    0.9252   -3.8731 H   0  0  0  0  0  0
   -3.2020   -0.8334    2.4916 H   0  0  0  0  0  0
   -5.6596    2.7093    0.4332 H   0  0  0  0  0  0
   -4.7501    1.6091    5.9185 H   0  0  0  0  0  0
   -3.6642   -0.0523    4.6771 H   0  0  0  0  0  0
   -8.2932    2.9683    4.1599 H   0  0  0  0  0  0
   -8.8801    7.7147    2.8314 H   0  0  0  0  0  0
   -6.9384    6.4341    1.9980 H   0  0  0  0  0  0
   -4.6415   -3.8210   -1.0047 H   0  0  0  0  0  0
   -4.5720   -2.2049   -1.7855 H   0  0  0  0  0  0
   -2.7895   -4.1778   -2.4628 H   0  0  0  0  0  0
   -2.3044   -2.4491   -2.4089 H   0  0  0  0  0  0
   -1.6910   -2.5408    1.0889 H   0  0  0  0  0  0
   -2.7097   -4.0203    1.0969 H   0  0  0  0  0  0
   -6.1187    4.2931    1.5719 H   0  0  0  0  0  0
   -6.0133    3.1884   -0.5592 H   0  0  0  0  0  0
   -7.6640    2.9126   -6.0113 H   0  0  0  0  0  0
  1  2  1  0  0  0
  1 36  1  0  0  0
  1 37  1  0  0  0
  1 38  1  0  0  0
  2  3  1  0  0  0
  2  4  1  0  0  0
  2 61  1  0  0  0
  3 39  1  0  0  0
  3 40  1  0  0  0
  3 41  1  0  0  0
  4  5  1  0  0  0
  4 42  1  0  0  0
  4 43  1  0  0  0
  5  6  2  0  0  0
  5 44  1  0  0  0
  6  7  1  0  0  0
  6 45  1  0  0  0
  7  8  2  0  0  0
  7  9  1  0  0  0
  8 60  1  0  0  0
  9 10  1  0  0  0
 10 15  2  0  0  0
 10 11  1  0  0  0
 11 29  1  0  0  0
 11 12  2  0  0  0
 12 46  1  0  0  0
 12 13  1  0  0  0
 13 14  2  0  0  0
 13 19  1  0  0  0
 14 16  1  0  0  0
 14 15  1  0  0  0
 15 47  1  0  0  0
 16 20  2  0  0  0
 16 17  1  0  0  0
 17 18  2  0  0  0
 18 19  1  0  0  0
 18 48  1  0  0  0
 19 49  1  0  0  0
 20 21  1  0  0  0
 20 59  1  0  0  0
 21 26  2  0  0  0
 21 22  1  0  0  0
 22 23  2  0  0  0
 22 50  1  0  0  0
 23 24  1  0  0  0
 23 28  1  0  0  0
 24 25  2  0  0  0
 24 27  1  0  0  0
 25 26  1  0  0  0
 25 51  1  0  0  0
 26 52  1  0  0  0
 29 30  1  0  0  0
 30 31  1  0  0  0
 30 35  1  0  0  0
 30 32  1  0  0  0
 32 33  1  0  0  0
 32 53  1  0  0  0
 32 54  1  0  0  0
 33 34  1  0  0  0
 33 55  1  0  0  0
 33 56  1  0  0  0
 34 35  1  0  0  0
 35 57  1  0  0  0
 35 58  1  0  0  0
M  CHG  4   2   1   8   1   9  -1  20   1
M  END
> <s_m_source_file>
/Users/andrea/Development/mcce-charges/epik_inhibitors/output/Afatinib/Afatinib-input.mol2

> <i_m_source_file_index>
1

> <r_epik_Ionization_Penalty>
  0.0691

> <r_epik_Ionization_Penalty_Charging>
  0.0357

> <r_epik_Ionization_Penalty_Neutral>
  0.0334

> <r_epik_State_Penalty>
  4.0784

> <i_epik_Tot_Q>
2

> <s_epik_Chemistry_Notes>
This compound has an imine and may undergo hydrolysis.

$$$$
(~{E})-~{N}-[4-(3-chloro-4-fluoro-anilino)-7-[(3~{S})-tetrahydrofuran-3-yl]oxy-quinazolin-6-yl]-4-(dimethylamino)but-2-enamide
                    3D
 Structure written by MMmdl.
 61 64  0  0  1  0            999 V2000
   -7.4216    0.8592   -6.3224 C   0  0  0  0  0  0
   -6.9566    2.2331   -6.5093 N   0  3  0  0  0  0
   -6.9132    2.5690   -7.9319 C   0  0  0  0  0  0
   -5.6420    2.4135   -5.9023 C   0  0  0  0  0  0
   -5.7426    2.6126   -4.4193 C   0  0  0  0  0  0
   -5.1638    1.7956   -3.5279 C   0  0  0  0  0  0
   -5.2952    2.0565   -2.0634 C   0  0  0  0  0  0
   -5.9302    3.0162   -1.6425 O   0  3  0  0  0  0
   -4.6215    1.0925   -1.3249 N   0  5  0  0  0  0
   -4.5216    1.0074    0.0654 C   0  0  0  0  0  0
   -3.8074   -0.0228    0.6671 C   0  0  0  0  0  0
   -3.7161   -0.0919    2.0604 C   0  0  0  0  0  0
   -4.3304    0.8528    2.8788 C   0  0  0  0  0  0
   -5.0493    1.8882    2.2594 C   0  0  0  0  0  0
   -5.1443    1.9655    0.8590 C   0  0  0  0  0  0
   -5.6487    2.8131    3.1098 C   0  0  0  0  0  0
   -5.5715    2.7591    4.4528 N   0  0  0  0  0  0
   -4.8592    1.7265    4.9314 C   0  0  0  0  0  0
   -4.2334    0.7690    4.2172 N   0  0  0  0  0  0
   -6.3900    3.8870    2.5575 N   0  3  0  0  0  0
   -6.2774    4.5932    1.3493 C   0  0  0  0  0  0
   -5.0304    4.7437    0.7426 C   0  0  0  0  0  0
   -4.9192    5.4439   -0.4586 C   0  0  0  0  0  0
   -6.0550    5.9936   -1.0532 C   0  0  0  0  0  0
   -7.3019    5.8432   -0.4465 C   0  0  0  0  0  0
   -7.4131    5.1430    0.7548 C   0  0  0  0  0  0
   -5.9637    6.6709   -2.2067 F   0  0  0  0  0  0
   -3.3769    5.6289   -1.2008 Cl  0  0  0  0  0  0
   -3.1867   -0.9767   -0.0835 O   0  0  0  0  0  0
   -3.5955   -2.3251    0.1186 C   0  0  1  0  0  0
   -4.3945   -2.2597    0.8718 H   0  0  0  0  0  0
   -4.0081   -2.9421   -1.1952 C   0  0  0  0  0  0
   -2.6707   -3.2981   -1.8131 C   0  0  0  0  0  0
   -1.7750   -3.5832   -0.7301 O   0  0  0  0  0  0
   -2.3869   -3.1553    0.4989 C   0  0  0  0  0  0
   -7.4480    0.6240   -5.2482 H   0  0  0  0  0  0
   -6.7353    0.1673   -6.8325 H   0  0  0  0  0  0
   -8.4312    0.7530   -6.7459 H   0  0  0  0  0  0
   -6.5619    3.6042   -8.0537 H   0  0  0  0  0  0
   -7.9206    2.4705   -8.3628 H   0  0  0  0  0  0
   -6.2246    1.8848   -8.4493 H   0  0  0  0  0  0
   -5.0251    1.5228   -6.0925 H   0  0  0  0  0  0
   -5.1544    3.2973   -6.3395 H   0  0  0  0  0  0
   -6.3257    3.4789   -4.0739 H   0  0  0  0  0  0
   -4.5866    0.9252   -3.8731 H   0  0  0  0  0  0
   -3.2020   -0.8334    2.4916 H   0  0  0  0  0  0
   -5.6596    2.7093    0.4332 H   0  0  0  0  0  0
   -4.7501    1.6091    5.9185 H   0  0  0  0  0  0
   -3.6642   -0.0523    4.6771 H   0  0  0  0  0  0
   -4.1467    4.3130    1.2085 H   0  0  0  0  0  0
   -8.1868    6.2690   -0.9102 H   0  0  0  0  0  0
   -8.3900    5.0311    1.2185 H   0  0  0  0  0  0
   -4.6415   -3.8210   -1.0047 H   0  0  0  0  0  0
   -4.5720   -2.2049   -1.7855 H   0  0  0  0  0  0
   -2.7895   -4.1778   -2.4628 H   0  0  0  0  0  0
   -2.3044   -2.4491   -2.4089 H   0  0  0  0  0  0
   -1.6910   -2.5408    1.0889 H   0  0  0  0  0  0
   -2.7097   -4.0203    1.0969 H   0  0  0  0  0  0
   -7.2369    4.3145    3.1144 H   0  0  0  0  0  0
   -6.0133    3.1884   -0.5592 H   0  0  0  0  0  0
   -7.6640    2.9126   -6.0113 H   0  0  0  0  0  0
  1  2  1  0  0  0
  1 36  1  0  0  0
  1 37  1  0  0  0
  1 38  1  0  0  0
  2  3  1  0  0  0
  2  4  1  0  0  0
  2 61  1  0  0  0
  3 39  1  0  0  0
  3 40  1  0  0  0
  3 41  1  0  0  0
  4  5  1  0  0  0
  4 42  1  0  0  0
  4 43  1  0  0  0
  5  6  2  0  0  0
  5 44  1  0  0  0
  6  7  1  0  0  0
  6 45  1  0  0  0
  7  8  2  0  0  0
  7  9  1  0  0  0
  8 60  1  0  0  0
  9 10  1  0  0  0
 10 15  2  0  0  0
 10 11  1  0  0  0
 11 29  1  0  0  0
 11 12  2  0  0  0
 12 46  1  0  0  0
 12 13  1  0  0  0
 13 14  2  0  0  0
 13 19  1  0  0  0
 14 16  1  0  0  0
 14 15  1  0  0  0
 15 47  1  0  0  0
 16 20  2  0  0  0
 16 17  1  0  0  0
 17 18  2  0  0  0
 18 19  1  0  0  0
 18 48  1  0  0  0
 19 49  1  0  0  0
 20 21  1  0  0  0
 20 59  1  0  0  0
 21 26  2  0  0  0
 21 22  1  0  0  0
 22 23  2  0  0  0
 22 50  1  0  0  0
 23 24  1  0  0  0
 23 28  1  0  0  0
 24 25  2  0  0  0
 24 27  1  0  0  0
 25 26  1  0  0  0
 25 51  1  0  0  0
 26 52  1  0  0  0
 29 30  1  0  0  0
 30 31  1  0  0  0
 30 35  1  0  0  0
 30 32  1  0  0  0
 32 33  1  0  0  0
 32 53  1  0  0  0
 32 54  1  0  0  0
 33 34  1  0  0  0
 33 55  1  0  0  0
 33 56  1  0  0  0
 34 35  1  0  0  0
 35 57  1  0  0  0
 35 58  1  0  0  0
M  CHG  4   2   1   8   1   9  -1  20   1
M  END
> <s_m_source_file>
/Users/andrea/Development/mcce-charges/epik_inhibitors/output/Afatinib/Afatinib-input.mol2

> <i_m_source_file_index>
1

> <r_epik_Ionization_Penalty>
  0.0691

> <r_epik_Ionization_Penalty_Charging>
  0.0357

> <r_epik_Ionization_Penalty_Neutral>
  0.0334

> <r_epik_State_Penalty>
  4.0784

> <i_epik_Tot_Q>
2

> <s_epik_Chemistry_Notes>
This compound has an imine and may undergo hydrolysis.

$$$$
(~{E})-~{N}-[4-(3-chloro-4-fluoro-anilino)-7-[(3~{S})-tetrahydrofuran-3-yl]oxy-quinazolin-6-yl]-4-(dimethylamino)but-2-enamide
                    3D
 Structure written by MMmdl.
 59 62  0  0  1  0            999 V2000
   -7.4188    0.8604   -6.3235 C   0  0  0  0  0  0
   -6.9541    2.2345   -6.5099 N   0  3  0  0  0  0
   -6.9103    2.5707   -7.9324 C   0  0  0  0  0  0
   -5.6397    2.4150   -5.9024 C   0  0  0  0  0  0
   -5.7409    2.6137   -4.4194 C   0  0  0  0  0  0
   -5.1622    1.7967   -3.5279 C   0  0  0  0  0  0
   -5.2942    2.0572   -2.0634 C   0  0  0  0  0  0
   -5.9296    3.0166   -1.6425 O   0  5  0  0  0  0
   -4.6206    1.0931   -1.3249 N   0  0  0  0  0  0
   -4.5211    1.0077    0.0654 C   0  0  0  0  0  0
   -3.8067   -0.0223    0.6671 C   0  0  0  0  0  0
   -3.7167   -0.0923    2.0604 C   0  0  0  0  0  0
   -4.3304    0.8528    2.8788 C   0  0  0  0  0  0
   -5.0493    1.8882    2.2594 C   0  0  0  0  0  0
   -5.1444    1.9655    0.8590 C   0  0  0  0  0  0
   -5.6484    2.8133    3.1098 C   0  0  0  0  0  0
   -5.5709    2.7595    4.4528 N   0  0  0  0  0  0
   -4.8583    1.7271    4.9314 C   0  0  0  0  0  0
   -4.2328    0.7694    4.2172 N   0  0  0  0  0  0
   -6.3900    3.8870    2.5575 N   0  0  0  0  0  0
   -7.4938    4.6164    3.0274 C   0  0  0  0  0  0
   -8.4247    4.0083    3.8697 C   0  0  0  0  0  0
   -9.5202    4.7338    4.3377 C   0  0  0  0  0  0
   -9.6849    6.0674    3.9635 C   0  0  0  0  0  0
   -8.7541    6.6754    3.1212 C   0  0  0  0  0  0
   -7.6586    5.9499    2.6531 C   0  0  0  0  0  0
  -10.7338    6.7771    4.4037 F   0  0  0  0  0  0
  -10.6673    3.9767    5.3744 Cl  0  0  0  0  0  0
   -3.1859   -0.9762   -0.0835 O   0  0  0  0  0  0
   -3.5949   -2.3246    0.1184 C   0  0  1  0  0  0
   -4.3940   -2.2591    0.8715 H   0  0  0  0  0  0
   -4.0074   -2.9414   -1.1956 C   0  0  0  0  0  0
   -2.6699   -3.2975   -1.8133 C   0  0  0  0  0  0
   -1.7744   -3.5828   -0.7302 O   0  0  0  0  0  0
   -2.3865   -3.1549    0.4988 C   0  0  0  0  0  0
   -7.4455    0.6249   -5.2493 H   0  0  0  0  0  0
   -6.7321    0.1688   -6.8335 H   0  0  0  0  0  0
   -8.4282    0.7540   -6.7474 H   0  0  0  0  0  0
   -6.5592    3.6061   -8.0538 H   0  0  0  0  0  0
   -7.9174    2.4721   -8.3636 H   0  0  0  0  0  0
   -6.2213    1.8868   -8.4497 H   0  0  0  0  0  0
   -5.0225    1.5245   -6.0925 H   0  0  0  0  0  0
   -5.1522    3.2991   -6.3391 H   0  0  0  0  0  0
   -6.3244    3.4798   -4.0739 H   0  0  0  0  0  0
   -4.5847    0.9265   -3.8732 H   0  0  0  0  0  0
   -3.1533   -0.9064    2.5138 H   0  0  0  0  0  0
   -5.7007    2.7665    0.3765 H   0  0  0  0  0  0
   -4.7758    1.6541    6.0091 H   0  0  0  0  0  0
   -6.1189    4.2930    1.5718 H   0  0  0  0  0  0
   -8.2928    2.9682    4.1603 H   0  0  0  0  0  0
   -8.8806    7.7144    2.8314 H   0  0  0  0  0  0
   -6.9388    6.4340    1.9978 H   0  0  0  0  0  0
   -4.6409   -3.8203   -1.0052 H   0  0  0  0  0  0
   -4.5711   -2.2040   -1.7859 H   0  0  0  0  0  0
   -2.7887   -4.1771   -2.4631 H   0  0  0  0  0  0
   -2.3034   -2.4485   -2.4090 H   0  0  0  0  0  0
   -1.6906   -2.5406    1.0890 H   0  0  0  0  0  0
   -2.7094   -4.0199    1.0966 H   0  0  0  0  0  0
   -7.6618    2.9136   -6.0120 H   0  0  0  0  0  0
  1  2  1  0  0  0
  1 36  1  0  0  0
  1 37  1  0  0  0
  1 38  1  0  0  0
  2  3  1  0  0  0
  2  4  1  0  0  0
  2 59  1  0  0  0
  3 39  1  0  0  0
  3 40  1  0  0  0
  3 41  1  0  0  0
  4  5  1  0  0  0
  4 42  1  0  0  0
  4 43  1  0  0  0
  5  6  2  0  0  0
  5 44  1  0  0  0
  6  7  1  0  0  0
  6 45  1  0  0  0
  7  8  1  0  0  0
  7  9  2  0  0  0
  9 10  1  0  0  0
 10 15  2  0  0  0
 10 11  1  0  0  0
 11 12  2  0  0  0
 11 29  1  0  0  0
 12 13  1  0  0  0
 12 46  1  0  0  0
 13 19  1  0  0  0
 13 14  2  0  0  0
 14 15  1  0  0  0
 14 16  1  0  0  0
 15 47  1  0  0  0
 16 17  2  0  0  0
 16 20  1  0  0  0
 17 18  1  0  0  0
 18 19  2  0  0  0
 18 48  1  0  0  0
 20 21  1  0  0  0
 20 49  1  0  0  0
 21 26  2  0  0  0
 21 22  1  0  0  0
 22 23  2  0  0  0
 22 50  1  0  0  0
 23 24  1  0  0  0
 23 28  1  0  0  0
 24 25  2  0  0  0
 24 27  1  0  0  0
 25 26  1  0  0  0
 25 51  1  0  0  0
 26 52  1  0  0  0
 29 30  1  0  0  0
 30 31  1  0  0  0
 30 35  1  0  0  0
 30 32  1  0  0  0
 32 33  1  0  0  0
 32 53  1  0  0  0
 32 54  1  0  0  0
 33 34  1  0  0  0
 33 55  1  0  0  0
 33 56  1  0  0  0
 34 35  1  0  0  0
 35 57  1  0  0  0
 35 58  1  0  0  0
M  CHG  2   2   1   8  -1
M  END
> <s_m_source_file>
/Users/andrea/Development/mcce-charges/epik_inhibitors/output/Afatinib/Afatinib-input.mol2

> <i_m_source_file_index>
1

> <r_epik_Ionization_Penalty>
  4.4728

> <r_epik_Ionization_Penalty_Charging>
  4.4705

> <r_epik_Ionization_Penalty_Neutral>
  0.0023

> <r_epik_State_Penalty>
  4.7607

> <i_epik_Tot_Q>
0

$$$$
(~{E})-~{N}-[4-(3-chloro-4-fluoro-anilino)-7-[(3~{S})-tetrahydrofuran-3-yl]oxy-quinazolin-6-yl]-4-(dimethylamino)but-2-enamide
                    3D
 Structure written by MMmdl.
 61 64  0  0  1  0            999 V2000
   -7.4188    0.8604   -6.3235 C   0  0  0  0  0  0
   -6.9541    2.2345   -6.5099 N   0  3  0  0  0  0
   -6.9103    2.5707   -7.9324 C   0  0  0  0  0  0
   -5.6397    2.4150   -5.9024 C   0  0  0  0  0  0
   -5.7409    2.6137   -4.4194 C   0  0  0  0  0  0
   -5.1622    1.7967   -3.5279 C   0  0  0  0  0  0
   -5.2942    2.0572   -2.0634 C   0  0  0  0  0  0
   -5.9296    3.0166   -1.6425 O   0  3  0  0  0  0
   -4.6206    1.0931   -1.3249 N   0  5  0  0  0  0
   -4.5211    1.0077    0.0654 C   0  0  0  0  0  0
   -3.8067   -0.0223    0.6671 C   0  0  0  0  0  0
   -3.7167   -0.0923    2.0604 C   0  0  0  0  0  0
   -4.3304    0.8528    2.8788 C   0  0  0  0  0  0
   -5.0493    1.8882    2.2594 C   0  0  0  0  0  0
   -5.1444    1.9655    0.8590 C   0  0  0  0  0  0
   -5.6484    2.8133    3.1098 C   0  0  0  0  0  0
   -5.5709    2.7595    4.4528 N   0  0  0  0  0  0
   -4.8583    1.7271    4.9314 C   0  0  0  0  0  0
   -4.2328    0.7694    4.2172 N   0  3  0  0  0  0
   -6.3900    3.8870    2.5575 N   0  0  0  0  0  0
   -7.4938    4.6164    3.0274 C   0  0  0  0  0  0
   -8.4247    4.0083    3.8697 C   0  0  0  0  0  0
   -9.5202    4.7338    4.3377 C   0  0  0  0  0  0
   -9.6849    6.0674    3.9635 C   0  0  0  0  0  0
   -8.7541    6.6754    3.1212 C   0  0  0  0  0  0
   -7.6586    5.9499    2.6531 C   0  0  0  0  0  0
  -10.7338    6.7771    4.4037 F   0  0  0  0  0  0
  -10.6673    3.9767    5.3744 Cl  0  0  0  0  0  0
   -3.1859   -0.9762   -0.0835 O   0  0  0  0  0  0
   -3.5949   -2.3246    0.1184 C   0  0  1  0  0  0
   -4.3940   -2.2591    0.8715 H   0  0  0  0  0  0
   -4.0074   -2.9414   -1.1956 C   0  0  0  0  0  0
   -2.6699   -3.2975   -1.8133 C   0  0  0  0  0  0
   -1.7744   -3.5828   -0.7302 O   0  0  0  0  0  0
   -2.3865   -3.1549    0.4988 C   0  0  0  0  0  0
   -7.4455    0.6249   -5.2493 H   0  0  0  0  0  0
   -6.7321    0.1688   -6.8335 H   0  0  0  0  0  0
   -8.4282    0.7540   -6.7474 H   0  0  0  0  0  0
   -6.5592    3.6061   -8.0538 H   0  0  0  0  0  0
   -7.9174    2.4721   -8.3636 H   0  0  0  0  0  0
   -6.2213    1.8868   -8.4497 H   0  0  0  0  0  0
   -5.0225    1.5245   -6.0925 H   0  0  0  0  0  0
   -5.1522    3.2991   -6.3391 H   0  0  0  0  0  0
   -6.3244    3.4798   -4.0739 H   0  0  0  0  0  0
   -4.5847    0.9265   -3.8732 H   0  0  0  0  0  0
   -3.1533   -0.9064    2.5138 H   0  0  0  0  0  0
   -5.7007    2.7665    0.3765 H   0  0  0  0  0  0
   -4.7758    1.6541    6.0091 H   0  0  0  0  0  0
   -6.1189    4.2930    1.5718 H   0  0  0  0  0  0
   -8.2928    2.9682    4.1603 H   0  0  0  0  0  0
   -8.8806    7.7144    2.8314 H   0  0  0  0  0  0
   -6.9388    6.4340    1.9978 H   0  0  0  0  0  0
   -4.6409   -3.8203   -1.0052 H   0  0  0  0  0  0
   -4.5711   -2.2040   -1.7859 H   0  0  0  0  0  0
   -2.7887   -4.1771   -2.4631 H   0  0  0  0  0  0
   -2.3034   -2.4485   -2.4090 H   0  0  0  0  0  0
   -1.6906   -2.5406    1.0890 H   0  0  0  0  0  0
   -2.7094   -4.0199    1.0966 H   0  0  0  0  0  0
   -6.0132    3.1884   -0.5592 H   0  0  0  0  0  0
   -7.6618    2.9136   -6.0120 H   0  0  0  0  0  0
   -3.6634   -0.0518    4.6770 H   0  0  0  0  0  0
  1  2  1  0  0  0
  1 36  1  0  0  0
  1 37  1  0  0  0
  1 38  1  0  0  0
  2  3  1  0  0  0
  2  4  1  0  0  0
  2 60  1  0  0  0
  3 39  1  0  0  0
  3 40  1  0  0  0
  3 41  1  0  0  0
  4  5  1  0  0  0
  4 42  1  0  0  0
  4 43  1  0  0  0
  5  6  2  0  0  0
  5 44  1  0  0  0
  6  7  1  0  0  0
  6 45  1  0  0  0
  7  8  2  0  0  0
  7  9  1  0  0  0
  8 59  1  0  0  0
  9 10  1  0  0  0
 10 15  2  0  0  0
 10 11  1  0  0  0
 11 12  2  0  0  0
 11 29  1  0  0  0
 12 13  1  0  0  0
 12 46  1  0  0  0
 13 19  1  0  0  0
 13 14  2  0  0  0
 14 15  1  0  0  0
 14 16  1  0  0  0
 15 47  1  0  0  0
 16 17  2  0  0  0
 16 20  1  0  0  0
 17 18  1  0  0  0
 18 19  2  0  0  0
 18 48  1  0  0  0
 19 61  1  0  0  0
 20 21  1  0  0  0
 20 49  1  0  0  0
 21 26  2  0  0  0
 21 22  1  0  0  0
 22 23  2  0  0  0
 22 50  1  0  0  0
 23 24  1  0  0  0
 23 28  1  0  0  0
 24 25  2  0  0  0
 24 27  1  0  0  0
 25 26  1  0  0  0
 25 51  1  0  0  0
 26 52  1  0  0  0
 29 30  1  0  0  0
 30 31  1  0  0  0
 30 35  1  0  0  0
 30 32  1  0  0  0
 32 33  1  0  0  0
 32 53  1  0  0  0
 32 54  1  0  0  0
 33 34  1  0  0  0
 33 55  1  0  0  0
 33 56  1  0  0  0
 34 35  1  0  0  0
 35 57  1  0  0  0
 35 58  1  0  0  0
M  CHG  4   2   1   8   1   9  -1  19   1
M  END
> <s_m_source_file>
/Users/andrea/Development/mcce-charges/epik_inhibitors/output/Afatinib/Afatinib-input.mol2

> <i_m_source_file_index>
1

> <r_epik_Ionization_Penalty>
  2.9708

> <r_epik_Ionization_Penalty_Charging>
  2.9707

> <r_epik_Ionization_Penalty_Neutral>
  0.0001

> <r_epik_State_Penalty>
  5.0720

> <i_epik_Tot_Q>
2

$$$$
(~{E})-~{N}-[4-(3-chloro-4-fluoro-anilino)-7-[(3~{S})-tetrahydrofuran-3-yl]oxy-quinazolin-6-yl]-4-(dimethylamino)but-2-enamide
                    3D
 Structure written by MMmdl.
 60 63  0  0  1  0            999 V2000
   -7.4188    0.8604   -6.3235 C   0  0  0  0  0  0
   -6.9541    2.2345   -6.5099 N   0  0  0  0  0  0
   -6.9103    2.5707   -7.9324 C   0  0  0  0  0  0
   -5.6397    2.4150   -5.9024 C   0  0  0  0  0  0
   -5.7409    2.6137   -4.4194 C   0  0  0  0  0  0
   -5.1622    1.7967   -3.5279 C   0  0  0  0  0  0
   -5.2942    2.0572   -2.0634 C   0  0  0  0  0  0
   -5.9296    3.0166   -1.6425 O   0  3  0  0  0  0
   -4.6206    1.0931   -1.3249 N   0  0  0  0  0  0
   -4.5211    1.0077    0.0654 C   0  0  0  0  0  0
   -3.8067   -0.0223    0.6671 C   0  0  0  0  0  0
   -3.7167   -0.0923    2.0604 C   0  0  0  0  0  0
   -4.3304    0.8528    2.8788 C   0  0  0  0  0  0
   -5.0493    1.8882    2.2594 C   0  0  0  0  0  0
   -5.1444    1.9655    0.8590 C   0  0  0  0  0  0
   -5.6484    2.8133    3.1098 C   0  0  0  0  0  0
   -5.5709    2.7595    4.4528 N   0  0  0  0  0  0
   -4.8583    1.7271    4.9314 C   0  0  0  0  0  0
   -4.2328    0.7694    4.2172 N   0  0  0  0  0  0
   -6.3900    3.8870    2.5575 N   0  0  0  0  0  0
   -7.4938    4.6164    3.0274 C   0  0  0  0  0  0
   -8.4247    4.0083    3.8697 C   0  0  0  0  0  0
   -9.5202    4.7338    4.3377 C   0  0  0  0  0  0
   -9.6849    6.0674    3.9635 C   0  0  0  0  0  0
   -8.7541    6.6754    3.1212 C   0  0  0  0  0  0
   -7.6586    5.9499    2.6531 C   0  0  0  0  0  0
  -10.7338    6.7771    4.4037 F   0  0  0  0  0  0
  -10.6673    3.9767    5.3744 Cl  0  0  0  0  0  0
   -3.1859   -0.9762   -0.0835 O   0  0  0  0  0  0
   -3.5949   -2.3246    0.1184 C   0  0  1  0  0  0
   -4.3940   -2.2591    0.8715 H   0  0  0  0  0  0
   -4.0074   -2.9414   -1.1956 C   0  0  0  0  0  0
   -2.6699   -3.2975   -1.8133 C   0  0  0  0  0  0
   -1.7744   -3.5828   -0.7302 O   0  0  0  0  0  0
   -2.3865   -3.1549    0.4988 C   0  0  0  0  0  0
   -7.4455    0.6249   -5.2493 H   0  0  0  0  0  0
   -6.7321    0.1688   -6.8335 H   0  0  0  0  0  0
   -8.4282    0.7540   -6.7474 H   0  0  0  0  0  0
   -6.5592    3.6061   -8.0538 H   0  0  0  0  0  0
   -7.9174    2.4721   -8.3636 H   0  0  0  0  0  0
   -6.2213    1.8868   -8.4497 H   0  0  0  0  0  0
   -5.0225    1.5245   -6.0925 H   0  0  0  0  0  0
   -5.1522    3.2991   -6.3391 H   0  0  0  0  0  0
   -6.3244    3.4798   -4.0739 H   0  0  0  0  0  0
   -4.5847    0.9265   -3.8732 H   0  0  0  0  0  0
   -4.0868    0.2801   -1.8388 H   0  0  0  0  0  0
   -3.1533   -0.9064    2.5138 H   0  0  0  0  0  0
   -5.7007    2.7665    0.3765 H   0  0  0  0  0  0
   -4.7758    1.6541    6.0091 H   0  0  0  0  0  0
   -6.1189    4.2930    1.5718 H   0  0  0  0  0  0
   -8.2928    2.9682    4.1603 H   0  0  0  0  0  0
   -8.8806    7.7144    2.8314 H   0  0  0  0  0  0
   -6.9388    6.4340    1.9978 H   0  0  0  0  0  0
   -4.6409   -3.8203   -1.0052 H   0  0  0  0  0  0
   -4.5711   -2.2040   -1.7859 H   0  0  0  0  0  0
   -2.7887   -4.1771   -2.4631 H   0  0  0  0  0  0
   -2.3034   -2.4485   -2.4090 H   0  0  0  0  0  0
   -1.6906   -2.5406    1.0890 H   0  0  0  0  0  0
   -2.7094   -4.0199    1.0966 H   0  0  0  0  0  0
   -6.0132    3.1884   -0.5592 H   0  0  0  0  0  0
  1  2  1  0  0  0
  1 36  1  0  0  0
  1 37  1  0  0  0
  1 38  1  0  0  0
  2  3  1  0  0  0
  2  4  1  0  0  0
  3 39  1  0  0  0
  3 40  1  0  0  0
  3 41  1  0  0  0
  4  5  1  0  0  0
  4 42  1  0  0  0
  4 43  1  0  0  0
  5  6  2  0  0  0
  5 44  1  0  0  0
  6  7  1  0  0  0
  6 45  1  0  0  0
  7  8  2  0  0  0
  7  9  1  0  0  0
  8 60  1  0  0  0
  9 10  1  0  0  0
  9 46  1  0  0  0
 10 15  2  0  0  0
 10 11  1  0  0  0
 11 12  2  0  0  0
 11 29  1  0  0  0
 12 13  1  0  0  0
 12 47  1  0  0  0
 13 19  1  0  0  0
 13 14  2  0  0  0
 14 15  1  0  0  0
 14 16  1  0  0  0
 15 48  1  0  0  0
 16 17  2  0  0  0
 16 20  1  0  0  0
 17 18  1  0  0  0
 18 19  2  0  0  0
 18 49  1  0  0  0
 20 21  1  0  0  0
 20 50  1  0  0  0
 21 26  2  0  0  0
 21 22  1  0  0  0
 22 23  2  0  0  0
 22 51  1  0  0  0
 23 24  1  0  0  0
 23 28  1  0  0  0
 24 25  2  0  0  0
 24 27  1  0  0  0
 25 26  1  0  0  0
 25 52  1  0  0  0
 26 53  1  0  0  0
 29 30  1  0  0  0
 30 31  1  0  0  0
 30 35  1  0  0  0
 30 32  1  0  0  0
 32 33  1  0  0  0
 32 54  1  0  0  0
 32 55  1  0  0  0
 33 34  1  0  0  0
 33 56  1  0  0  0
 33 57  1  0  0  0
 34 35  1  0  0  0
 35 58  1  0  0  0
 35 59  1  0  0  0
M  CHG  1   8   1
M  END
> <s_m_source_file>
/Users/andrea/Development/mcce-charges/epik_inhibitors/output/Afatinib/Afatinib-input.mol2

> <i_m_source_file_index>
1

> <r_epik_Ionization_Penalty>
  7.3100

> <r_epik_Ionization_Penalty_Charging>
  3.8006

> <r_epik_Ionization_Penalty_Neutral>
  3.5094

> <r_epik_State_Penalty>
  6.2426

> <i_epik_Tot_Q>
1

$$$$
(~{E})-~{N}-[4-(3-chloro-4-fluoro-anilino)-7-[(3~{S})-tetrahydrofuran-3-yl]oxy-quinazolin-6-yl]-4-(dimethylamino)but-2-enamide
                    3D
 Structure written by MMmdl.
 60 63  0  0  1  0            999 V2000
   -7.4188    0.8604   -6.3235 C   0  0  0  0  0  0
   -6.9541    2.2345   -6.5099 N   0  0  0  0  0  0
   -6.9103    2.5707   -7.9324 C   0  0  0  0  0  0
   -5.6397    2.4150   -5.9024 C   0  0  0  0  0  0
   -5.7409    2.6137   -4.4194 C   0  0  0  0  0  0
   -5.1622    1.7967   -3.5279 C   0  0  0  0  0  0
   -5.2942    2.0572   -2.0634 C   0  0  0  0  0  0
   -5.9296    3.0166   -1.6425 O   0  3  0  0  0  0
   -4.6206    1.0931   -1.3249 N   0  5  0  0  0  0
   -4.5211    1.0077    0.0654 C   0  0  0  0  0  0
   -3.8067   -0.0223    0.6671 C   0  0  0  0  0  0
   -3.7167   -0.0923    2.0604 C   0  0  0  0  0  0
   -4.3304    0.8528    2.8788 C   0  0  0  0  0  0
   -5.0493    1.8882    2.2594 C   0  0  0  0  0  0
   -5.1444    1.9655    0.8590 C   0  0  0  0  0  0
   -5.6484    2.8133    3.1098 C   0  0  0  0  0  0
   -5.5709    2.7595    4.4528 N   0  0  0  0  0  0
   -4.8583    1.7271    4.9314 C   0  0  0  0  0  0
   -4.2328    0.7694    4.2172 N   0  3  0  0  0  0
   -6.3900    3.8870    2.5575 N   0  0  0  0  0  0
   -7.4938    4.6164    3.0274 C   0  0  0  0  0  0
   -8.4247    4.0083    3.8697 C   0  0  0  0  0  0
   -9.5202    4.7338    4.3377 C   0  0  0  0  0  0
   -9.6849    6.0674    3.9635 C   0  0  0  0  0  0
   -8.7541    6.6754    3.1212 C   0  0  0  0  0  0
   -7.6586    5.9499    2.6531 C   0  0  0  0  0  0
  -10.7338    6.7771    4.4037 F   0  0  0  0  0  0
  -10.6673    3.9767    5.3744 Cl  0  0  0  0  0  0
   -3.1859   -0.9762   -0.0835 O   0  0  0  0  0  0
   -3.5949   -2.3246    0.1184 C   0  0  1  0  0  0
   -4.3940   -2.2591    0.8715 H   0  0  0  0  0  0
   -4.0074   -2.9414   -1.1956 C   0  0  0  0  0  0
   -2.6699   -3.2975   -1.8133 C   0  0  0  0  0  0
   -1.7744   -3.5828   -0.7302 O   0  0  0  0  0  0
   -2.3865   -3.1549    0.4988 C   0  0  0  0  0  0
   -7.4455    0.6249   -5.2493 H   0  0  0  0  0  0
   -6.7321    0.1688   -6.8335 H   0  0  0  0  0  0
   -8.4282    0.7540   -6.7474 H   0  0  0  0  0  0
   -6.5592    3.6061   -8.0538 H   0  0  0  0  0  0
   -7.9174    2.4721   -8.3636 H   0  0  0  0  0  0
   -6.2213    1.8868   -8.4497 H   0  0  0  0  0  0
   -5.0225    1.5245   -6.0925 H   0  0  0  0  0  0
   -5.1522    3.2991   -6.3391 H   0  0  0  0  0  0
   -6.3244    3.4798   -4.0739 H   0  0  0  0  0  0
   -4.5847    0.9265   -3.8732 H   0  0  0  0  0  0
   -3.1533   -0.9064    2.5138 H   0  0  0  0  0  0
   -5.7007    2.7665    0.3765 H   0  0  0  0  0  0
   -4.7758    1.6541    6.0091 H   0  0  0  0  0  0
   -6.1189    4.2930    1.5718 H   0  0  0  0  0  0
   -8.2928    2.9682    4.1603 H   0  0  0  0  0  0
   -8.8806    7.7144    2.8314 H   0  0  0  0  0  0
   -6.9388    6.4340    1.9978 H   0  0  0  0  0  0
   -4.6409   -3.8203   -1.0052 H   0  0  0  0  0  0
   -4.5711   -2.2040   -1.7859 H   0  0  0  0  0  0
   -2.7887   -4.1771   -2.4631 H   0  0  0  0  0  0
   -2.3034   -2.4485   -2.4090 H   0  0  0  0  0  0
   -1.6906   -2.5406    1.0890 H   0  0  0  0  0  0
   -2.7094   -4.0199    1.0966 H   0  0  0  0  0  0
   -6.0132    3.1884   -0.5592 H   0  0  0  0  0  0
   -3.6634   -0.0518    4.6770 H   0  0  0  0  0  0
  1  2  1  0  0  0
  1 36  1  0  0  0
  1 37  1  0  0  0
  1 38  1  0  0  0
  2  3  1  0  0  0
  2  4  1  0  0  0
  3 39  1  0  0  0
  3 40  1  0  0  0
  3 41  1  0  0  0
  4  5  1  0  0  0
  4 42  1  0  0  0
  4 43  1  0  0  0
  5  6  2  0  0  0
  5 44  1  0  0  0
  6  7  1  0  0  0
  6 45  1  0  0  0
  7  8  2  0  0  0
  7  9  1  0  0  0
  8 59  1  0  0  0
  9 10  1  0  0  0
 10 15  2  0  0  0
 10 11  1  0  0  0
 11 12  2  0  0  0
 11 29  1  0  0  0
 12 13  1  0  0  0
 12 46  1  0  0  0
 13 19  1  0  0  0
 13 14  2  0  0  0
 14 15  1  0  0  0
 14 16  1  0  0  0
 15 47  1  0  0  0
 16 17  2  0  0  0
 16 20  1  0  0  0
 17 18  1  0  0  0
 18 19  2  0  0  0
 18 48  1  0  0  0
 19 60  1  0  0  0
 20 21  1  0  0  0
 20 49  1  0  0  0
 21 26  2  0  0  0
 21 22  1  0  0  0
 22 23  2  0  0  0
 22 50  1  0  0  0
 23 24  1  0  0  0
 23 28  1  0  0  0
 24 25  2  0  0  0
 24 27  1  0  0  0
 25 26  1  0  0  0
 25 51  1  0  0  0
 26 52  1  0  0  0
 29 30  1  0  0  0
 30 31  1  0  0  0
 30 35  1  0  0  0
 30 32  1  0  0  0
 32 33  1  0  0  0
 32 53  1  0  0  0
 32 54  1  0  0  0
 33 34  1  0  0  0
 33 55  1  0  0  0
 33 56  1  0  0  0
 34 35  1  0  0  0
 35 57  1  0  0  0
 35 58  1  0  0  0
M  CHG  3   8   1   9  -1  19   1
M  END
> <s_m_source_file>
/Users/andrea/Development/mcce-charges/epik_inhibitors/output/Afatinib/Afatinib-input.mol2

> <i_m_source_file_index>
1

> <r_epik_Ionization_Penalty>
  4.5152

> <r_epik_Ionization_Penalty_Charging>
  2.8016

> <r_epik_Ionization_Penalty_Neutral>
  1.7136

> <r_epik_State_Penalty>
  6.3473

> <i_epik_Tot_Q>
1

$$$$
(~{E})-~{N}-[4-(3-chloro-4-fluoro-anilino)-7-[(3~{S})-tetrahydrofuran-3-yl]oxy-quinazolin-6-yl]-4-(dimethylamino)but-2-enamide
                    3D
 Structure written by MMmdl.
 61 64  0  0  1  0            999 V2000
   -7.4188    0.8604   -6.3235 C   0  0  0  0  0  0
   -6.9541    2.2345   -6.5099 N   0  3  0  0  0  0
   -6.9103    2.5707   -7.9324 C   0  0  0  0  0  0
   -5.6397    2.4150   -5.9024 C   0  0  0  0  0  0
   -5.7409    2.6137   -4.4194 C   0  0  0  0  0  0
   -5.1622    1.7967   -3.5279 C   0  0  0  0  0  0
   -5.2942    2.0572   -2.0634 C   0  0  0  0  0  0
   -5.9296    3.0166   -1.6425 O   0  3  0  0  0  0
   -4.6206    1.0931   -1.3249 N   0  5  0  0  0  0
   -4.5211    1.0077    0.0654 C   0  0  0  0  0  0
   -3.8067   -0.0223    0.6671 C   0  0  0  0  0  0
   -3.7167   -0.0923    2.0604 C   0  0  0  0  0  0
   -4.3304    0.8528    2.8788 C   0  0  0  0  0  0
   -5.0493    1.8882    2.2594 C   0  0  0  0  0  0
   -5.1444    1.9655    0.8590 C   0  0  0  0  0  0
   -5.6484    2.8133    3.1098 C   0  0  0  0  0  0
   -5.5709    2.7595    4.4528 N   0  3  0  0  0  0
   -4.8583    1.7271    4.9314 C   0  0  0  0  0  0
   -4.2328    0.7694    4.2172 N   0  0  0  0  0  0
   -6.3900    3.8870    2.5575 N   0  0  0  0  0  0
   -7.4938    4.6164    3.0274 C   0  0  0  0  0  0
   -8.4247    4.0083    3.8697 C   0  0  0  0  0  0
   -9.5202    4.7338    4.3377 C   0  0  0  0  0  0
   -9.6849    6.0674    3.9635 C   0  0  0  0  0  0
   -8.7541    6.6754    3.1212 C   0  0  0  0  0  0
   -7.6586    5.9499    2.6531 C   0  0  0  0  0  0
  -10.7338    6.7771    4.4037 F   0  0  0  0  0  0
  -10.6673    3.9767    5.3744 Cl  0  0  0  0  0  0
   -3.1859   -0.9762   -0.0835 O   0  0  0  0  0  0
   -3.5949   -2.3246    0.1184 C   0  0  1  0  0  0
   -4.3940   -2.2591    0.8715 H   0  0  0  0  0  0
   -4.0074   -2.9414   -1.1956 C   0  0  0  0  0  0
   -2.6699   -3.2975   -1.8133 C   0  0  0  0  0  0
   -1.7744   -3.5828   -0.7302 O   0  0  0  0  0  0
   -2.3865   -3.1549    0.4988 C   0  0  0  0  0  0
   -7.4455    0.6249   -5.2493 H   0  0  0  0  0  0
   -6.7321    0.1688   -6.8335 H   0  0  0  0  0  0
   -8.4282    0.7540   -6.7474 H   0  0  0  0  0  0
   -6.5592    3.6061   -8.0538 H   0  0  0  0  0  0
   -7.9174    2.4721   -8.3636 H   0  0  0  0  0  0
   -6.2213    1.8868   -8.4497 H   0  0  0  0  0  0
   -5.0225    1.5245   -6.0925 H   0  0  0  0  0  0
   -5.1522    3.2991   -6.3391 H   0  0  0  0  0  0
   -6.3244    3.4798   -4.0739 H   0  0  0  0  0  0
   -4.5847    0.9265   -3.8732 H   0  0  0  0  0  0
   -3.1533   -0.9064    2.5138 H   0  0  0  0  0  0
   -5.7007    2.7665    0.3765 H   0  0  0  0  0  0
   -4.7758    1.6541    6.0091 H   0  0  0  0  0  0
   -6.1189    4.2930    1.5718 H   0  0  0  0  0  0
   -8.2928    2.9682    4.1603 H   0  0  0  0  0  0
   -8.8806    7.7144    2.8314 H   0  0  0  0  0  0
   -6.9388    6.4340    1.9978 H   0  0  0  0  0  0
   -4.6409   -3.8203   -1.0052 H   0  0  0  0  0  0
   -4.5711   -2.2040   -1.7859 H   0  0  0  0  0  0
   -2.7887   -4.1771   -2.4631 H   0  0  0  0  0  0
   -2.3034   -2.4485   -2.4090 H   0  0  0  0  0  0
   -1.6906   -2.5406    1.0890 H   0  0  0  0  0  0
   -2.7094   -4.0199    1.0966 H   0  0  0  0  0  0
   -6.0132    3.1884   -0.5592 H   0  0  0  0  0  0
   -7.6618    2.9136   -6.0120 H   0  0  0  0  0  0
   -6.0703    3.5259    5.0637 H   0  0  0  0  0  0
  1  2  1  0  0  0
  1 36  1  0  0  0
  1 37  1  0  0  0
  1 38  1  0  0  0
  2  3  1  0  0  0
  2  4  1  0  0  0
  2 60  1  0  0  0
  3 39  1  0  0  0
  3 40  1  0  0  0
  3 41  1  0  0  0
  4  5  1  0  0  0
  4 42  1  0  0  0
  4 43  1  0  0  0
  5  6  2  0  0  0
  5 44  1  0  0  0
  6  7  1  0  0  0
  6 45  1  0  0  0
  7  8  2  0  0  0
  7  9  1  0  0  0
  8 59  1  0  0  0
  9 10  1  0  0  0
 10 15  2  0  0  0
 10 11  1  0  0  0
 11 12  2  0  0  0
 11 29  1  0  0  0
 12 13  1  0  0  0
 12 46  1  0  0  0
 13 19  1  0  0  0
 13 14  2  0  0  0
 14 15  1  0  0  0
 14 16  1  0  0  0
 15 47  1  0  0  0
 16 17  2  0  0  0
 16 20  1  0  0  0
 17 18  1  0  0  0
 17 61  1  0  0  0
 18 19  2  0  0  0
 18 48  1  0  0  0
 20 21  1  0  0  0
 20 49  1  0  0  0
 21 26  2  0  0  0
 21 22  1  0  0  0
 22 23  2  0  0  0
 22 50  1  0  0  0
 23 24  1  0  0  0
 23 28  1  0  0  0
 24 25  2  0  0  0
 24 27  1  0  0  0
 25 26  1  0  0  0
 25 51  1  0  0  0
 26 52  1  0  0  0
 29 30  1  0  0  0
 30 31  1  0  0  0
 30 35  1  0  0  0
 30 32  1  0  0  0
 32 33  1  0  0  0
 32 53  1  0  0  0
 32 54  1  0  0  0
 33 34  1  0  0  0
 33 55  1  0  0  0
 33 56  1  0  0  0
 34 35  1  0  0  0
 35 57  1  0  0  0
 35 58  1  0  0  0
M  CHG  4   2   1   8   1   9  -1  17   1
M  END
> <s_m_source_file>
/Users/andrea/Development/mcce-charges/epik_inhibitors/output/Afatinib/Afatinib-input.mol2

> <i_m_source_file_index>
1

> <r_epik_Ionization_Penalty>
  4.4897

> <r_epik_Ionization_Penalty_Charging>
  4.4829

> <r_epik_Ionization_Penalty_Neutral>
  0.0068

> <r_epik_State_Penalty>
  7.6689

> <i_epik_Tot_Q>
2

$$$$
(~{E})-~{N}-[4-(3-chloro-4-fluoro-anilino)-7-[(3~{S})-tetrahydrofuran-3-yl]oxy-quinazolin-6-yl]-4-(dimethylamino)but-2-enamide
                    3D
 Structure written by MMmdl.
 60 63  0  0  1  0            999 V2000
   -7.4216    0.8592   -6.3224 C   0  0  0  0  0  0
   -6.9566    2.2331   -6.5093 N   0  3  0  0  0  0
   -6.9132    2.5690   -7.9319 C   0  0  0  0  0  0
   -5.6420    2.4135   -5.9023 C   0  0  0  0  0  0
   -5.7426    2.6126   -4.4193 C   0  0  0  0  0  0
   -5.1638    1.7956   -3.5279 C   0  0  0  0  0  0
   -5.2952    2.0565   -2.0634 C   0  0  0  0  0  0
   -5.9302    3.0162   -1.6425 O   0  0  0  0  0  0
   -4.6215    1.0925   -1.3249 N   0  0  0  0  0  0
   -4.5216    1.0074    0.0654 C   0  0  0  0  0  0
   -3.8074   -0.0228    0.6671 C   0  0  0  0  0  0
   -3.7161   -0.0919    2.0604 C   0  0  0  0  0  0
   -4.3304    0.8528    2.8788 C   0  0  0  0  0  0
   -5.0493    1.8882    2.2594 C   0  0  0  0  0  0
   -5.1443    1.9655    0.8590 C   0  0  0  0  0  0
   -5.6487    2.8131    3.1098 C   0  0  0  0  0  0
   -5.5715    2.7591    4.4528 N   0  0  0  0  0  0
   -4.8592    1.7265    4.9314 C   0  0  0  0  0  0
   -4.2334    0.7690    4.2172 N   0  0  0  0  0  0
   -6.3900    3.8870    2.5575 N   0  0  0  0  0  0
   -7.4938    4.6165    3.0273 C   0  0  0  0  0  0
   -8.4249    4.0084    3.8694 C   0  0  0  0  0  0
   -9.5204    4.7340    4.3373 C   0  0  0  0  0  0
   -9.6848    6.0677    3.9632 C   0  0  0  0  0  0
   -8.7538    6.6757    3.1211 C   0  0  0  0  0  0
   -7.6583    5.9501    2.6531 C   0  0  0  0  0  0
  -10.7337    6.7775    4.4033 F   0  0  0  0  0  0
  -10.6678    3.9770    5.3737 Cl  0  0  0  0  0  0
   -3.1867   -0.9767   -0.0835 O   0  0  0  0  0  0
   -3.5955   -2.3251    0.1186 C   0  0  1  0  0  0
   -4.3945   -2.2597    0.8718 H   0  0  0  0  0  0
   -4.0081   -2.9421   -1.1952 C   0  0  0  0  0  0
   -2.6707   -3.2981   -1.8131 C   0  0  0  0  0  0
   -1.7750   -3.5832   -0.7301 O   0  0  0  0  0  0
   -2.3869   -3.1553    0.4989 C   0  0  0  0  0  0
   -7.4480    0.6240   -5.2482 H   0  0  0  0  0  0
   -6.7353    0.1673   -6.8325 H   0  0  0  0  0  0
   -8.4312    0.7530   -6.7459 H   0  0  0  0  0  0
   -6.5619    3.6042   -8.0537 H   0  0  0  0  0  0
   -7.9206    2.4705   -8.3628 H   0  0  0  0  0  0
   -6.2246    1.8848   -8.4493 H   0  0  0  0  0  0
   -5.0251    1.5228   -6.0925 H   0  0  0  0  0  0
   -5.1544    3.2973   -6.3395 H   0  0  0  0  0  0
   -6.3257    3.4789   -4.0739 H   0  0  0  0  0  0
   -4.5866    0.9252   -3.8731 H   0  0  0  0  0  0
   -4.0881    0.2792   -1.8388 H   0  0  0  0  0  0
   -3.2020   -0.8334    2.4916 H   0  0  0  0  0  0
   -5.6596    2.7093    0.4332 H   0  0  0  0  0  0
   -4.8191    1.7117    5.9305 H   0  0  0  0  0  0
   -8.2932    2.9683    4.1599 H   0  0  0  0  0  0
   -8.8801    7.7147    2.8314 H   0  0  0  0  0  0
   -6.9384    6.4341    1.9980 H   0  0  0  0  0  0
   -4.6415   -3.8210   -1.0047 H   0  0  0  0  0  0
   -4.5720   -2.2049   -1.7855 H   0  0  0  0  0  0
   -2.7895   -4.1778   -2.4628 H   0  0  0  0  0  0
   -2.3044   -2.4491   -2.4089 H   0  0  0  0  0  0
   -1.6910   -2.5408    1.0889 H   0  0  0  0  0  0
   -2.7097   -4.0203    1.0969 H   0  0  0  0  0  0
   -7.6640    2.9126   -6.0113 H   0  0  0  0  0  0
   -6.0351    3.4760    5.1465 H   0  0  0  0  0  0
  1  2  1  0  0  0
  1 36  1  0  0  0
  1 37  1  0  0  0
  1 38  1  0  0  0
  2  3  1  0  0  0
  2  4  1  0  0  0
  2 59  1  0  0  0
  3 39  1  0  0  0
  3 40  1  0  0  0
  3 41  1  0  0  0
  4  5  1  0  0  0
  4 42  1  0  0  0
  4 43  1  0  0  0
  5  6  2  0  0  0
  5 44  1  0  0  0
  6  7  1  0  0  0
  6 45  1  0  0  0
  7  8  2  0  0  0
  7  9  1  0  0  0
  9 46  1  0  0  0
  9 10  1  0  0  0
 10 15  2  0  0  0
 10 11  1  0  0  0
 11 29  1  0  0  0
 11 12  2  0  0  0
 12 47  1  0  0  0
 12 13  1  0  0  0
 13 14  2  0  0  0
 13 19  1  0  0  0
 14 16  1  0  0  0
 14 15  1  0  0  0
 15 48  1  0  0  0
 16 20  2  0  0  0
 16 17  1  0  0  0
 17 18  1  0  0  0
 17 60  1  0  0  0
 18 19  2  0  0  0
 18 49  1  0  0  0
 20 21  1  0  0  0
 21 26  2  0  0  0
 21 22  1  0  0  0
 22 23  2  0  0  0
 22 50  1  0  0  0
 23 24  1  0  0  0
 23 28  1  0  0  0
 24 25  2  0  0  0
 24 27  1  0  0  0
 25 26  1  0  0  0
 25 51  1  0  0  0
 26 52  1  0  0  0
 29 30  1  0  0  0
 30 31  1  0  0  0
 30 35  1  0  0  0
 30 32  1  0  0  0
 32 33  1  0  0  0
 32 53  1  0  0  0
 32 54  1  0  0  0
 33 34  1  0  0  0
 33 55  1  0  0  0
 33 56  1  0  0  0
 34 35  1  0  0  0
 35 57  1  0  0  0
 35 58  1  0  0  0
M  CHG  1   2   1
M  END
> <s_m_source_file>
/Users/andrea/Development/mcce-charges/epik_inhibitors/output/Afatinib/Afatinib-input.mol2

> <i_m_source_file_index>
1

> <r_epik_Ionization_Penalty>
  4.8367

> <r_epik_Ionization_Penalty_Charging>
  4.8345

> <r_epik_Ionization_Penalty_Neutral>
  0.0022

> <r_epik_State_Penalty>
  8.9936

> <i_epik_Tot_Q>
1

$$$$
(~{E})-~{N}-[4-(3-chloro-4-fluoro-anilino)-7-[(3~{S})-tetrahydrofuran-3-yl]oxy-quinazolin-6-yl]-4-(dimethylamino)but-2-enamide
                    3D
 Structure written by MMmdl.
 60 63  0  0  1  0            999 V2000
   -7.4216    0.8592   -6.3224 C   0  0  0  0  0  0
   -6.9566    2.2331   -6.5093 N   0  3  0  0  0  0
   -6.9132    2.5690   -7.9319 C   0  0  0  0  0  0
   -5.6420    2.4135   -5.9023 C   0  0  0  0  0  0
   -5.7426    2.6126   -4.4193 C   0  0  0  0  0  0
   -5.1638    1.7956   -3.5279 C   0  0  0  0  0  0
   -5.2952    2.0565   -2.0634 C   0  0  0  0  0  0
   -5.9302    3.0162   -1.6425 O   0  0  0  0  0  0
   -4.6215    1.0925   -1.3249 N   0  0  0  0  0  0
   -4.5216    1.0074    0.0654 C   0  0  0  0  0  0
   -3.8074   -0.0228    0.6671 C   0  0  0  0  0  0
   -3.7161   -0.0919    2.0604 C   0  0  0  0  0  0
   -4.3304    0.8528    2.8788 C   0  0  0  0  0  0
   -5.0493    1.8882    2.2594 C   0  0  0  0  0  0
   -5.1443    1.9655    0.8590 C   0  0  0  0  0  0
   -5.6487    2.8131    3.1098 C   0  0  0  0  0  0
   -5.5715    2.7591    4.4528 N   0  0  0  0  0  0
   -4.8592    1.7265    4.9314 C   0  0  0  0  0  0
   -4.2334    0.7690    4.2172 N   0  0  0  0  0  0
   -6.3900    3.8870    2.5575 N   0  0  0  0  0  0
   -6.2774    4.5932    1.3493 C   0  0  0  0  0  0
   -5.0304    4.7437    0.7426 C   0  0  0  0  0  0
   -4.9192    5.4439   -0.4586 C   0  0  0  0  0  0
   -6.0550    5.9936   -1.0532 C   0  0  0  0  0  0
   -7.3019    5.8432   -0.4465 C   0  0  0  0  0  0
   -7.4131    5.1430    0.7548 C   0  0  0  0  0  0
   -5.9637    6.6709   -2.2067 F   0  0  0  0  0  0
   -3.3769    5.6289   -1.2008 Cl  0  0  0  0  0  0
   -3.1867   -0.9767   -0.0835 O   0  0  0  0  0  0
   -3.5955   -2.3251    0.1186 C   0  0  1  0  0  0
   -4.3945   -2.2597    0.8718 H   0  0  0  0  0  0
   -4.0081   -2.9421   -1.1952 C   0  0  0  0  0  0
   -2.6707   -3.2981   -1.8131 C   0  0  0  0  0  0
   -1.7750   -3.5832   -0.7301 O   0  0  0  0  0  0
   -2.3869   -3.1553    0.4989 C   0  0  0  0  0  0
   -7.4480    0.6240   -5.2482 H   0  0  0  0  0  0
   -6.7353    0.1673   -6.8325 H   0  0  0  0  0  0
   -8.4312    0.7530   -6.7459 H   0  0  0  0  0  0
   -6.5619    3.6042   -8.0537 H   0  0  0  0  0  0
   -7.9206    2.4705   -8.3628 H   0  0  0  0  0  0
   -6.2246    1.8848   -8.4493 H   0  0  0  0  0  0
   -5.0251    1.5228   -6.0925 H   0  0  0  0  0  0
   -5.1544    3.2973   -6.3395 H   0  0  0  0  0  0
   -6.3257    3.4789   -4.0739 H   0  0  0  0  0  0
   -4.5866    0.9252   -3.8731 H   0  0  0  0  0  0
   -4.0881    0.2792   -1.8388 H   0  0  0  0  0  0
   -3.2020   -0.8334    2.4916 H   0  0  0  0  0  0
   -5.6596    2.7093    0.4332 H   0  0  0  0  0  0
   -4.8191    1.7117    5.9305 H   0  0  0  0  0  0
   -4.1467    4.3130    1.2085 H   0  0  0  0  0  0
   -8.1868    6.2690   -0.9102 H   0  0  0  0  0  0
   -8.3900    5.0311    1.2185 H   0  0  0  0  0  0
   -4.6415   -3.8210   -1.0047 H   0  0  0  0  0  0
   -4.5720   -2.2049   -1.7855 H   0  0  0  0  0  0
   -2.7895   -4.1778   -2.4628 H   0  0  0  0  0  0
   -2.3044   -2.4491   -2.4089 H   0  0  0  0  0  0
   -1.6910   -2.5408    1.0889 H   0  0  0  0  0  0
   -2.7097   -4.0203    1.0969 H   0  0  0  0  0  0
   -7.6640    2.9126   -6.0113 H   0  0  0  0  0  0
   -6.0351    3.4760    5.1465 H   0  0  0  0  0  0
  1  2  1  0  0  0
  1 36  1  0  0  0
  1 37  1  0  0  0
  1 38  1  0  0  0
  2  3  1  0  0  0
  2  4  1  0  0  0
  2 59  1  0  0  0
  3 39  1  0  0  0
  3 40  1  0  0  0
  3 41  1  0  0  0
  4  5  1  0  0  0
  4 42  1  0  0  0
  4 43  1  0  0  0
  5  6  2  0  0  0
  5 44  1  0  0  0
  6  7  1  0  0  0
  6 45  1  0  0  0
  7  8  2  0  0  0
  7  9  1  0  0  0
  9 46  1  0  0  0
  9 10  1  0  0  0
 10 15  2  0  0  0
 10 11  1  0  0  0
 11 29  1  0  0  0
 11 12  2  0  0  0
 12 47  1  0  0  0
 12 13  1  0  0  0
 13 14  2  0  0  0
 13 19  1  0  0  0
 14 16  1  0  0  0
 14 15  1  0  0  0
 15 48  1  0  0  0
 16 20  2  0  0  0
 16 17  1  0  0  0
 17 18  1  0  0  0
 17 60  1  0  0  0
 18 19  2  0  0  0
 18 49  1  0  0  0
 20 21  1  0  0  0
 21 26  2  0  0  0
 21 22  1  0  0  0
 22 23  2  0  0  0
 22 50  1  0  0  0
 23 24  1  0  0  0
 23 28  1  0  0  0
 24 25  2  0  0  0
 24 27  1  0  0  0
 25 26  1  0  0  0
 25 51  1  0  0  0
 26 52  1  0  0  0
 29 30  1  0  0  0
 30 31  1  0  0  0
 30 35  1  0  0  0
 30 32  1  0  0  0
 32 33  1  0  0  0
 32 53  1  0  0  0
 32 54  1  0  0  0
 33 34  1  0  0  0
 33 55  1  0  0  0
 33 56  1  0  0  0
 34 35  1  0  0  0
 35 57  1  0  0  0
 35 58  1  0  0  0
M  CHG  1   2   1
M  END
> <s_m_source_file>
/Users/andrea/Development/mcce-charges/epik_inhibitors/output/Afatinib/Afatinib-input.mol2

> <i_m_source_file_index>
1

> <r_epik_Ionization_Penalty>
  4.8367

> <r_epik_Ionization_Penalty_Charging>
  4.8345

> <r_epik_Ionization_Penalty_Neutral>
  0.0022

> <r_epik_State_Penalty>
  8.9936

> <i_epik_Tot_Q>
1

$$$$
(~{E})-~{N}-[4-(3-chloro-4-fluoro-anilino)-7-[(3~{S})-tetrahydrofuran-3-yl]oxy-quinazolin-6-yl]-4-(dimethylamino)but-2-enamide
                    3D
 Structure written by MMmdl.
 59 62  0  0  1  0            999 V2000
   -7.4216    0.8592   -6.3224 C   0  0  0  0  0  0
   -6.9566    2.2331   -6.5093 N   0  0  0  0  0  0
   -6.9132    2.5690   -7.9319 C   0  0  0  0  0  0
   -5.6420    2.4135   -5.9023 C   0  0  0  0  0  0
   -5.7426    2.6126   -4.4193 C   0  0  0  0  0  0
   -5.1638    1.7956   -3.5279 C   0  0  0  0  0  0
   -5.2952    2.0565   -2.0634 C   0  0  0  0  0  0
   -5.9302    3.0162   -1.6425 O   0  0  0  0  0  0
   -4.6215    1.0925   -1.3249 N   0  0  0  0  0  0
   -4.5216    1.0074    0.0654 C   0  0  0  0  0  0
   -3.8074   -0.0228    0.6671 C   0  0  0  0  0  0
   -3.7161   -0.0919    2.0604 C   0  0  0  0  0  0
   -4.3304    0.8528    2.8788 C   0  0  0  0  0  0
   -5.0493    1.8882    2.2594 C   0  0  0  0  0  0
   -5.1443    1.9655    0.8590 C   0  0  0  0  0  0
   -5.6487    2.8131    3.1098 C   0  0  0  0  0  0
   -5.5715    2.7591    4.4528 N   0  0  0  0  0  0
   -4.8592    1.7265    4.9314 C   0  0  0  0  0  0
   -4.2334    0.7690    4.2172 N   0  0  0  0  0  0
   -6.3900    3.8870    2.5575 N   0  0  0  0  0  0
   -7.4938    4.6165    3.0273 C   0  0  0  0  0  0
   -8.4249    4.0084    3.8694 C   0  0  0  0  0  0
   -9.5204    4.7340    4.3373 C   0  0  0  0  0  0
   -9.6848    6.0677    3.9632 C   0  0  0  0  0  0
   -8.7538    6.6757    3.1211 C   0  0  0  0  0  0
   -7.6583    5.9501    2.6531 C   0  0  0  0  0  0
  -10.7337    6.7775    4.4033 F   0  0  0  0  0  0
  -10.6678    3.9770    5.3737 Cl  0  0  0  0  0  0
   -3.1867   -0.9767   -0.0835 O   0  0  0  0  0  0
   -3.5955   -2.3251    0.1186 C   0  0  1  0  0  0
   -4.3945   -2.2597    0.8718 H   0  0  0  0  0  0
   -4.0081   -2.9421   -1.1952 C   0  0  0  0  0  0
   -2.6707   -3.2981   -1.8131 C   0  0  0  0  0  0
   -1.7750   -3.5832   -0.7301 O   0  0  0  0  0  0
   -2.3869   -3.1553    0.4989 C   0  0  0  0  0  0
   -7.4480    0.6240   -5.2482 H   0  0  0  0  0  0
   -6.7353    0.1673   -6.8325 H   0  0  0  0  0  0
   -8.4312    0.7530   -6.7459 H   0  0  0  0  0  0
   -6.5619    3.6042   -8.0537 H   0  0  0  0  0  0
   -7.9206    2.4705   -8.3628 H   0  0  0  0  0  0
   -6.2246    1.8848   -8.4493 H   0  0  0  0  0  0
   -5.0251    1.5228   -6.0925 H   0  0  0  0  0  0
   -5.1544    3.2973   -6.3395 H   0  0  0  0  0  0
   -6.3257    3.4789   -4.0739 H   0  0  0  0  0  0
   -4.5866    0.9252   -3.8731 H   0  0  0  0  0  0
   -4.0881    0.2792   -1.8388 H   0  0  0  0  0  0
   -3.2020   -0.8334    2.4916 H   0  0  0  0  0  0
   -5.6596    2.7093    0.4332 H   0  0  0  0  0  0
   -4.8191    1.7117    5.9305 H   0  0  0  0  0  0
   -8.2932    2.9683    4.1599 H   0  0  0  0  0  0
   -8.8801    7.7147    2.8314 H   0  0  0  0  0  0
   -6.9384    6.4341    1.9980 H   0  0  0  0  0  0
   -4.6415   -3.8210   -1.0047 H   0  0  0  0  0  0
   -4.5720   -2.2049   -1.7855 H   0  0  0  0  0  0
   -2.7895   -4.1778   -2.4628 H   0  0  0  0  0  0
   -2.3044   -2.4491   -2.4089 H   0  0  0  0  0  0
   -1.6910   -2.5408    1.0889 H   0  0  0  0  0  0
   -2.7097   -4.0203    1.0969 H   0  0  0  0  0  0
   -6.0351    3.4760    5.1465 H   0  0  0  0  0  0
  1  2  1  0  0  0
  1 36  1  0  0  0
  1 37  1  0  0  0
  1 38  1  0  0  0
  2  3  1  0  0  0
  2  4  1  0  0  0
  3 39  1  0  0  0
  3 40  1  0  0  0
  3 41  1  0  0  0
  4  5  1  0  0  0
  4 42  1  0  0  0
  4 43  1  0  0  0
  5  6  2  0  0  0
  5 44  1  0  0  0
  6  7  1  0  0  0
  6 45  1  0  0  0
  7  8  2  0  0  0
  7  9  1  0  0  0
  9 46  1  0  0  0
  9 10  1  0  0  0
 10 15  2  0  0  0
 10 11  1  0  0  0
 11 29  1  0  0  0
 11 12  2  0  0  0
 12 47  1  0  0  0
 12 13  1  0  0  0
 13 14  2  0  0  0
 13 19  1  0  0  0
 14 16  1  0  0  0
 14 15  1  0  0  0
 15 48  1  0  0  0
 16 20  2  0  0  0
 16 17  1  0  0  0
 17 18  1  0  0  0
 17 59  1  0  0  0
 18 19  2  0  0  0
 18 49  1  0  0  0
 20 21  1  0  0  0
 21 26  2  0  0  0
 21 22  1  0  0  0
 22 23  2  0  0  0
 22 50  1  0  0  0
 23 24  1  0  0  0
 23 28  1  0  0  0
 24 25  2  0  0  0
 24 27  1  0  0  0
 25 26  1  0  0  0
 25 51  1  0  0  0
 26 52  1  0  0  0
 29 30  1  0  0  0
 30 31  1  0  0  0
 30 35  1  0  0  0
 30 32  1  0  0  0
 32 33  1  0  0  0
 32 53  1  0  0  0
 32 54  1  0  0  0
 33 34  1  0  0  0
 33 55  1  0  0  0
 33 56  1  0  0  0
 34 35  1  0  0  0
 35 57  1  0  0  0
 35 58  1  0  0  0
M  END
> <s_m_source_file>
/Users/andrea/Development/mcce-charges/epik_inhibitors/output/Afatinib/Afatinib-input.mol2

> <i_m_source_file_index>
1

> <r_lp_tautomer_probability>
9.99989000120999e-06

> <r_epik_Ionization_Penalty>
  4.8941

> <r_epik_Ionization_Penalty_Charging>
  4.4376

> <r_epik_Ionization_Penalty_Neutral>
  0.4565

> <r_epik_State_Penalty>
  9.0361

> <i_epik_Tot_Q>
0

$$$$
(~{E})-~{N}-[4-(3-chloro-4-fluoro-anilino)-7-[(3~{S})-tetrahydrofuran-3-yl]oxy-quinazolin-6-yl]-4-(dimethylamino)but-2-enamide
                    3D
 Structure written by MMmdl.
 59 62  0  0  1  0            999 V2000
   -7.4216    0.8592   -6.3224 C   0  0  0  0  0  0
   -6.9566    2.2331   -6.5093 N   0  0  0  0  0  0
   -6.9132    2.5690   -7.9319 C   0  0  0  0  0  0
   -5.6420    2.4135   -5.9023 C   0  0  0  0  0  0
   -5.7426    2.6126   -4.4193 C   0  0  0  0  0  0
   -5.1638    1.7956   -3.5279 C   0  0  0  0  0  0
   -5.2952    2.0565   -2.0634 C   0  0  0  0  0  0
   -5.9302    3.0162   -1.6425 O   0  0  0  0  0  0
   -4.6215    1.0925   -1.3249 N   0  0  0  0  0  0
   -4.5216    1.0074    0.0654 C   0  0  0  0  0  0
   -3.8074   -0.0228    0.6671 C   0  0  0  0  0  0
   -3.7161   -0.0919    2.0604 C   0  0  0  0  0  0
   -4.3304    0.8528    2.8788 C   0  0  0  0  0  0
   -5.0493    1.8882    2.2594 C   0  0  0  0  0  0
   -5.1443    1.9655    0.8590 C   0  0  0  0  0  0
   -5.6487    2.8131    3.1098 C   0  0  0  0  0  0
   -5.5715    2.7591    4.4528 N   0  0  0  0  0  0
   -4.8592    1.7265    4.9314 C   0  0  0  0  0  0
   -4.2334    0.7690    4.2172 N   0  0  0  0  0  0
   -6.3900    3.8870    2.5575 N   0  0  0  0  0  0
   -6.2774    4.5932    1.3493 C   0  0  0  0  0  0
   -5.0304    4.7437    0.7426 C   0  0  0  0  0  0
   -4.9192    5.4439   -0.4586 C   0  0  0  0  0  0
   -6.0550    5.9936   -1.0532 C   0  0  0  0  0  0
   -7.3019    5.8432   -0.4465 C   0  0  0  0  0  0
   -7.4131    5.1430    0.7548 C   0  0  0  0  0  0
   -5.9637    6.6709   -2.2067 F   0  0  0  0  0  0
   -3.3769    5.6289   -1.2008 Cl  0  0  0  0  0  0
   -3.1867   -0.9767   -0.0835 O   0  0  0  0  0  0
   -3.5955   -2.3251    0.1186 C   0  0  1  0  0  0
   -4.3945   -2.2597    0.8718 H   0  0  0  0  0  0
   -4.0081   -2.9421   -1.1952 C   0  0  0  0  0  0
   -2.6707   -3.2981   -1.8131 C   0  0  0  0  0  0
   -1.7750   -3.5832   -0.7301 O   0  0  0  0  0  0
   -2.3869   -3.1553    0.4989 C   0  0  0  0  0  0
   -7.4480    0.6240   -5.2482 H   0  0  0  0  0  0
   -6.7353    0.1673   -6.8325 H   0  0  0  0  0  0
   -8.4312    0.7530   -6.7459 H   0  0  0  0  0  0
   -6.5619    3.6042   -8.0537 H   0  0  0  0  0  0
   -7.9206    2.4705   -8.3628 H   0  0  0  0  0  0
   -6.2246    1.8848   -8.4493 H   0  0  0  0  0  0
   -5.0251    1.5228   -6.0925 H   0  0  0  0  0  0
   -5.1544    3.2973   -6.3395 H   0  0  0  0  0  0
   -6.3257    3.4789   -4.0739 H   0  0  0  0  0  0
   -4.5866    0.9252   -3.8731 H   0  0  0  0  0  0
   -4.0881    0.2792   -1.8388 H   0  0  0  0  0  0
   -3.2020   -0.8334    2.4916 H   0  0  0  0  0  0
   -5.6596    2.7093    0.4332 H   0  0  0  0  0  0
   -4.8191    1.7117    5.9305 H   0  0  0  0  0  0
   -4.1467    4.3130    1.2085 H   0  0  0  0  0  0
   -8.1868    6.2690   -0.9102 H   0  0  0  0  0  0
   -8.3900    5.0311    1.2185 H   0  0  0  0  0  0
   -4.6415   -3.8210   -1.0047 H   0  0  0  0  0  0
   -4.5720   -2.2049   -1.7855 H   0  0  0  0  0  0
   -2.7895   -4.1778   -2.4628 H   0  0  0  0  0  0
   -2.3044   -2.4491   -2.4089 H   0  0  0  0  0  0
   -1.6910   -2.5408    1.0889 H   0  0  0  0  0  0
   -2.7097   -4.0203    1.0969 H   0  0  0  0  0  0
   -6.0351    3.4760    5.1465 H   0  0  0  0  0  0
  1  2  1  0  0  0
  1 36  1  0  0  0
  1 37  1  0  0  0
  1 38  1  0  0  0
  2  3  1  0  0  0
  2  4  1  0  0  0
  3 39  1  0  0  0
  3 40  1  0  0  0
  3 41  1  0  0  0
  4  5  1  0  0  0
  4 42  1  0  0  0
  4 43  1  0  0  0
  5  6  2  0  0  0
  5 44  1  0  0  0
  6  7  1  0  0  0
  6 45  1  0  0  0
  7  8  2  0  0  0
  7  9  1  0  0  0
  9 46  1  0  0  0
  9 10  1  0  0  0
 10 15  2  0  0  0
 10 11  1  0  0  0
 11 29  1  0  0  0
 11 12  2  0  0  0
 12 47  1  0  0  0
 12 13  1  0  0  0
 13 14  2  0  0  0
 13 19  1  0  0  0
 14 16  1  0  0  0
 14 15  1  0  0  0
 15 48  1  0  0  0
 16 20  2  0  0  0
 16 17  1  0  0  0
 17 18  1  0  0  0
 17 59  1  0  0  0
 18 19  2  0  0  0
 18 49  1  0  0  0
 20 21  1  0  0  0
 21 26  2  0  0  0
 21 22  1  0  0  0
 22 23  2  0  0  0
 22 50  1  0  0  0
 23 24  1  0  0  0
 23 28  1  0  0  0
 24 25  2  0  0  0
 24 27  1  0  0  0
 25 26  1  0  0  0
 25 51  1  0  0  0
 26 52  1  0  0  0
 29 30  1  0  0  0
 30 31  1  0  0  0
 30 35  1  0  0  0
 30 32  1  0  0  0
 32 33  1  0  0  0
 32 53  1  0  0  0
 32 54  1  0  0  0
 33 34  1  0  0  0
 33 55  1  0  0  0
 33 56  1  0  0  0
 34 35  1  0  0  0
 35 57  1  0  0  0
 35 58  1  0  0  0
M  END
> <s_m_source_file>
/Users/andrea/Development/mcce-charges/epik_inhibitors/output/Afatinib/Afatinib-input.mol2

> <i_m_source_file_index>
1

> <r_lp_tautomer_probability>
9.99989000120999e-06

> <r_epik_Ionization_Penalty>
  4.8941

> <r_epik_Ionization_Penalty_Charging>
  4.4376

> <r_epik_Ionization_Penalty_Neutral>
  0.4565

> <r_epik_State_Penalty>
  9.0361

> <i_epik_Tot_Q>
0

$$$$
(~{E})-~{N}-[4-(3-chloro-4-fluoro-anilino)-7-[(3~{S})-tetrahydrofuran-3-yl]oxy-quinazolin-6-yl]-4-(dimethylamino)but-2-enamide
                    3D
 Structure written by MMmdl.
 61 64  0  0  1  0            999 V2000
   -7.4188    0.8604   -6.3235 C   0  0  0  0  0  0
   -6.9541    2.2345   -6.5099 N   0  3  0  0  0  0
   -6.9103    2.5707   -7.9324 C   0  0  0  0  0  0
   -5.6397    2.4150   -5.9024 C   0  0  0  0  0  0
   -5.7409    2.6137   -4.4194 C   0  0  0  0  0  0
   -5.1622    1.7967   -3.5279 C   0  0  0  0  0  0
   -5.2942    2.0572   -2.0634 C   0  0  0  0  0  0
   -5.9296    3.0166   -1.6425 O   0  3  0  0  0  0
   -4.6206    1.0931   -1.3249 N   0  0  0  0  0  0
   -4.5211    1.0077    0.0654 C   0  0  0  0  0  0
   -3.8067   -0.0223    0.6671 C   0  0  0  0  0  0
   -3.7167   -0.0923    2.0604 C   0  0  0  0  0  0
   -4.3304    0.8528    2.8788 C   0  0  0  0  0  0
   -5.0493    1.8882    2.2594 C   0  0  0  0  0  0
   -5.1444    1.9655    0.8590 C   0  0  0  0  0  0
   -5.6484    2.8133    3.1098 C   0  0  0  0  0  0
   -5.5709    2.7595    4.4528 N   0  0  0  0  0  0
   -4.8583    1.7271    4.9314 C   0  0  0  0  0  0
   -4.2328    0.7694    4.2172 N   0  0  0  0  0  0
   -6.3900    3.8870    2.5575 N   0  0  0  0  0  0
   -7.4938    4.6164    3.0274 C   0  0  0  0  0  0
   -8.4247    4.0083    3.8697 C   0  0  0  0  0  0
   -9.5202    4.7338    4.3377 C   0  0  0  0  0  0
   -9.6849    6.0674    3.9635 C   0  0  0  0  0  0
   -8.7541    6.6754    3.1212 C   0  0  0  0  0  0
   -7.6586    5.9499    2.6531 C   0  0  0  0  0  0
  -10.7338    6.7771    4.4037 F   0  0  0  0  0  0
  -10.6673    3.9767    5.3744 Cl  0  0  0  0  0  0
   -3.1859   -0.9762   -0.0835 O   0  0  0  0  0  0
   -3.5949   -2.3246    0.1184 C   0  0  1  0  0  0
   -4.3940   -2.2591    0.8715 H   0  0  0  0  0  0
   -4.0074   -2.9414   -1.1956 C   0  0  0  0  0  0
   -2.6699   -3.2975   -1.8133 C   0  0  0  0  0  0
   -1.7744   -3.5828   -0.7302 O   0  0  0  0  0  0
   -2.3865   -3.1549    0.4988 C   0  0  0  0  0  0
   -7.4455    0.6249   -5.2493 H   0  0  0  0  0  0
   -6.7321    0.1688   -6.8335 H   0  0  0  0  0  0
   -8.4282    0.7540   -6.7474 H   0  0  0  0  0  0
   -6.5592    3.6061   -8.0538 H   0  0  0  0  0  0
   -7.9174    2.4721   -8.3636 H   0  0  0  0  0  0
   -6.2213    1.8868   -8.4497 H   0  0  0  0  0  0
   -5.0225    1.5245   -6.0925 H   0  0  0  0  0  0
   -5.1522    3.2991   -6.3391 H   0  0  0  0  0  0
   -6.3244    3.4798   -4.0739 H   0  0  0  0  0  0
   -4.5847    0.9265   -3.8732 H   0  0  0  0  0  0
   -3.1533   -0.9064    2.5138 H   0  0  0  0  0  0
   -5.7007    2.7665    0.3765 H   0  0  0  0  0  0
   -4.7758    1.6541    6.0091 H   0  0  0  0  0  0
   -6.1189    4.2930    1.5718 H   0  0  0  0  0  0
   -8.2928    2.9682    4.1603 H   0  0  0  0  0  0
   -8.8806    7.7144    2.8314 H   0  0  0  0  0  0
   -6.9388    6.4340    1.9978 H   0  0  0  0  0  0
   -4.6409   -3.8203   -1.0052 H   0  0  0  0  0  0
   -4.5711   -2.2040   -1.7859 H   0  0  0  0  0  0
   -2.7887   -4.1771   -2.4631 H   0  0  0  0  0  0
   -2.3034   -2.4485   -2.4090 H   0  0  0  0  0  0
   -1.6906   -2.5406    1.0890 H   0  0  0  0  0  0
   -2.7094   -4.0199    1.0966 H   0  0  0  0  0  0
   -6.0132    3.1884   -0.5592 H   0  0  0  0  0  0
   -7.6618    2.9136   -6.0120 H   0  0  0  0  0  0
   -4.0868    0.2801   -1.8388 H   0  0  0  0  0  0
  1  2  1  0  0  0
  1 36  1  0  0  0
  1 37  1  0  0  0
  1 38  1  0  0  0
  2  3  1  0  0  0
  2  4  1  0  0  0
  2 60  1  0  0  0
  3 39  1  0  0  0
  3 40  1  0  0  0
  3 41  1  0  0  0
  4  5  1  0  0  0
  4 42  1  0  0  0
  4 43  1  0  0  0
  5  6  2  0  0  0
  5 44  1  0  0  0
  6  7  1  0  0  0
  6 45  1  0  0  0
  7  8  2  0  0  0
  7  9  1  0  0  0
  8 59  1  0  0  0
  9 10  1  0  0  0
  9 61  1  0  0  0
 10 15  2  0  0  0
 10 11  1  0  0  0
 11 12  2  0  0  0
 11 29  1  0  0  0
 12 13  1  0  0  0
 12 46  1  0  0  0
 13 19  1  0  0  0
 13 14  2  0  0  0
 14 15  1  0  0  0
 14 16  1  0  0  0
 15 47  1  0  0  0
 16 17  2  0  0  0
 16 20  1  0  0  0
 17 18  1  0  0  0
 18 19  2  0  0  0
 18 48  1  0  0  0
 20 21  1  0  0  0
 20 49  1  0  0  0
 21 26  2  0  0  0
 21 22  1  0  0  0
 22 23  2  0  0  0
 22 50  1  0  0  0
 23 24  1  0  0  0
 23 28  1  0  0  0
 24 25  2  0  0  0
 24 27  1  0  0  0
 25 26  1  0  0  0
 25 51  1  0  0  0
 26 52  1  0  0  0
 29 30  1  0  0  0
 30 31  1  0  0  0
 30 35  1  0  0  0
 30 32  1  0  0  0
 32 33  1  0  0  0
 32 53  1  0  0  0
 32 54  1  0  0  0
 33 34  1  0  0  0
 33 55  1  0  0  0
 33 56  1  0  0  0
 34 35  1  0  0  0
 35 57  1  0  0  0
 35 58  1  0  0  0
M  CHG  2   2   1   8   1
M  END
> <s_m_source_file>
/Users/andrea/Development/mcce-charges/epik_inhibitors/output/Afatinib/Afatinib-input.mol2

> <i_m_source_file_index>
1

> <r_epik_Ionization_Penalty>
 10.2288

> <r_epik_Ionization_Penalty_Charging>
  6.8065

> <r_epik_Ionization_Penalty_Neutral>
  3.4224

> <r_epik_State_Penalty>
  9.1818

> <i_epik_Tot_Q>
2

$$$$
(~{E})-~{N}-[4-(3-chloro-4-fluoro-anilino)-7-[(3~{S})-tetrahydrofuran-3-yl]oxy-quinazolin-6-yl]-4-(dimethylamino)but-2-enamide
                    3D
 Structure written by MMmdl.
 59 62  0  0  1  0            999 V2000
   -7.4216    0.8592   -6.3224 C   0  0  0  0  0  0
   -6.9566    2.2331   -6.5093 N   0  3  0  0  0  0
   -6.9132    2.5690   -7.9319 C   0  0  0  0  0  0
   -5.6420    2.4135   -5.9023 C   0  0  0  0  0  0
   -5.7426    2.6126   -4.4193 C   0  0  0  0  0  0
   -5.1638    1.7956   -3.5279 C   0  0  0  0  0  0
   -5.2952    2.0565   -2.0634 C   0  0  0  0  0  0
   -5.9302    3.0162   -1.6425 O   0  0  0  0  0  0
   -4.6215    1.0925   -1.3249 N   0  0  0  0  0  0
   -4.5216    1.0074    0.0654 C   0  0  0  0  0  0
   -3.8074   -0.0228    0.6671 C   0  0  0  0  0  0
   -3.7161   -0.0919    2.0604 C   0  0  0  0  0  0
   -4.3304    0.8528    2.8788 C   0  0  0  0  0  0
   -5.0493    1.8882    2.2594 C   0  0  0  0  0  0
   -5.1443    1.9655    0.8590 C   0  0  0  0  0  0
   -5.6487    2.8131    3.1098 C   0  0  0  0  0  0
   -5.5715    2.7591    4.4528 N   0  5  0  0  0  0
   -4.8592    1.7265    4.9314 C   0  0  0  0  0  0
   -4.2334    0.7690    4.2172 N   0  0  0  0  0  0
   -6.3900    3.8870    2.5575 N   0  0  0  0  0  0
   -7.4938    4.6165    3.0273 C   0  0  0  0  0  0
   -8.4249    4.0084    3.8694 C   0  0  0  0  0  0
   -9.5204    4.7340    4.3373 C   0  0  0  0  0  0
   -9.6848    6.0677    3.9632 C   0  0  0  0  0  0
   -8.7538    6.6757    3.1211 C   0  0  0  0  0  0
   -7.6583    5.9501    2.6531 C   0  0  0  0  0  0
  -10.7337    6.7775    4.4033 F   0  0  0  0  0  0
  -10.6678    3.9770    5.3737 Cl  0  0  0  0  0  0
   -3.1867   -0.9767   -0.0835 O   0  0  0  0  0  0
   -3.5955   -2.3251    0.1186 C   0  0  1  0  0  0
   -4.3945   -2.2597    0.8718 H   0  0  0  0  0  0
   -4.0081   -2.9421   -1.1952 C   0  0  0  0  0  0
   -2.6707   -3.2981   -1.8131 C   0  0  0  0  0  0
   -1.7750   -3.5832   -0.7301 O   0  0  0  0  0  0
   -2.3869   -3.1553    0.4989 C   0  0  0  0  0  0
   -7.4480    0.6240   -5.2482 H   0  0  0  0  0  0
   -6.7353    0.1673   -6.8325 H   0  0  0  0  0  0
   -8.4312    0.7530   -6.7459 H   0  0  0  0  0  0
   -6.5619    3.6042   -8.0537 H   0  0  0  0  0  0
   -7.9206    2.4705   -8.3628 H   0  0  0  0  0  0
   -6.2246    1.8848   -8.4493 H   0  0  0  0  0  0
   -5.0251    1.5228   -6.0925 H   0  0  0  0  0  0
   -5.1544    3.2973   -6.3395 H   0  0  0  0  0  0
   -6.3257    3.4789   -4.0739 H   0  0  0  0  0  0
   -4.5866    0.9252   -3.8731 H   0  0  0  0  0  0
   -4.0881    0.2792   -1.8388 H   0  0  0  0  0  0
   -3.2020   -0.8334    2.4916 H   0  0  0  0  0  0
   -5.6596    2.7093    0.4332 H   0  0  0  0  0  0
   -4.8191    1.7117    5.9305 H   0  0  0  0  0  0
   -8.2932    2.9683    4.1599 H   0  0  0  0  0  0
   -8.8801    7.7147    2.8314 H   0  0  0  0  0  0
   -6.9384    6.4341    1.9980 H   0  0  0  0  0  0
   -4.6415   -3.8210   -1.0047 H   0  0  0  0  0  0
   -4.5720   -2.2049   -1.7855 H   0  0  0  0  0  0
   -2.7895   -4.1778   -2.4628 H   0  0  0  0  0  0
   -2.3044   -2.4491   -2.4089 H   0  0  0  0  0  0
   -1.6910   -2.5408    1.0889 H   0  0  0  0  0  0
   -2.7097   -4.0203    1.0969 H   0  0  0  0  0  0
   -7.6640    2.9126   -6.0113 H   0  0  0  0  0  0
  1  2  1  0  0  0
  1 36  1  0  0  0
  1 37  1  0  0  0
  1 38  1  0  0  0
  2  3  1  0  0  0
  2  4  1  0  0  0
  2 59  1  0  0  0
  3 39  1  0  0  0
  3 40  1  0  0  0
  3 41  1  0  0  0
  4  5  1  0  0  0
  4 42  1  0  0  0
  4 43  1  0  0  0
  5  6  2  0  0  0
  5 44  1  0  0  0
  6  7  1  0  0  0
  6 45  1  0  0  0
  7  8  2  0  0  0
  7  9  1  0  0  0
  9 46  1  0  0  0
  9 10  1  0  0  0
 10 15  2  0  0  0
 10 11  1  0  0  0
 11 29  1  0  0  0
 11 12  2  0  0  0
 12 47  1  0  0  0
 12 13  1  0  0  0
 13 14  2  0  0  0
 13 19  1  0  0  0
 14 16  1  0  0  0
 14 15  1  0  0  0
 15 48  1  0  0  0
 16 20  2  0  0  0
 16 17  1  0  0  0
 17 18  1  0  0  0
 18 19  2  0  0  0
 18 49  1  0  0  0
 20 21  1  0  0  0
 21 26  2  0  0  0
 21 22  1  0  0  0
 22 23  2  0  0  0
 22 50  1  0  0  0
 23 24  1  0  0  0
 23 28  1  0  0  0
 24 25  2  0  0  0
 24 27  1  0  0  0
 25 26  1  0  0  0
 25 51  1  0  0  0
 26 52  1  0  0  0
 29 30  1  0  0  0
 30 31  1  0  0  0
 30 35  1  0  0  0
 30 32  1  0  0  0
 32 33  1  0  0  0
 32 53  1  0  0  0
 32 54  1  0  0  0
 33 34  1  0  0  0
 33 55  1  0  0  0
 33 56  1  0  0  0
 34 35  1  0  0  0
 35 57  1  0  0  0
 35 58  1  0  0  0
M  CHG  2   2   1  17  -1
M  END
> <s_m_source_file>
/Users/andrea/Development/mcce-charges/epik_inhibitors/output/Afatinib/Afatinib-input.mol2

> <i_m_source_file_index>
1

> <r_epik_Ionization_Penalty>
  8.7516

> <r_epik_Ionization_Penalty_Charging>
  1.5232

> <r_epik_Ionization_Penalty_Neutral>
  7.2284

> <r_epik_State_Penalty>
  9.4458

> <i_epik_Tot_Q>
0

> <s_epik_Chemistry_Notes>
This compound has an imine and may undergo hydrolysis.

$$$$
(~{E})-~{N}-[4-(3-chloro-4-fluoro-anilino)-7-[(3~{S})-tetrahydrofuran-3-yl]oxy-quinazolin-6-yl]-4-(dimethylamino)but-2-enamide
                    3D
 Structure written by MMmdl.
 59 62  0  0  1  0            999 V2000
   -7.4216    0.8592   -6.3224 C   0  0  0  0  0  0
   -6.9566    2.2331   -6.5093 N   0  3  0  0  0  0
   -6.9132    2.5690   -7.9319 C   0  0  0  0  0  0
   -5.6420    2.4135   -5.9023 C   0  0  0  0  0  0
   -5.7426    2.6126   -4.4193 C   0  0  0  0  0  0
   -5.1638    1.7956   -3.5279 C   0  0  0  0  0  0
   -5.2952    2.0565   -2.0634 C   0  0  0  0  0  0
   -5.9302    3.0162   -1.6425 O   0  0  0  0  0  0
   -4.6215    1.0925   -1.3249 N   0  0  0  0  0  0
   -4.5216    1.0074    0.0654 C   0  0  0  0  0  0
   -3.8074   -0.0228    0.6671 C   0  0  0  0  0  0
   -3.7161   -0.0919    2.0604 C   0  0  0  0  0  0
   -4.3304    0.8528    2.8788 C   0  0  0  0  0  0
   -5.0493    1.8882    2.2594 C   0  0  0  0  0  0
   -5.1443    1.9655    0.8590 C   0  0  0  0  0  0
   -5.6487    2.8131    3.1098 C   0  0  0  0  0  0
   -5.5715    2.7591    4.4528 N   0  5  0  0  0  0
   -4.8592    1.7265    4.9314 C   0  0  0  0  0  0
   -4.2334    0.7690    4.2172 N   0  0  0  0  0  0
   -6.3900    3.8870    2.5575 N   0  0  0  0  0  0
   -6.2774    4.5932    1.3493 C   0  0  0  0  0  0
   -5.0304    4.7437    0.7426 C   0  0  0  0  0  0
   -4.9192    5.4439   -0.4586 C   0  0  0  0  0  0
   -6.0550    5.9936   -1.0532 C   0  0  0  0  0  0
   -7.3019    5.8432   -0.4465 C   0  0  0  0  0  0
   -7.4131    5.1430    0.7548 C   0  0  0  0  0  0
   -5.9637    6.6709   -2.2067 F   0  0  0  0  0  0
   -3.3769    5.6289   -1.2008 Cl  0  0  0  0  0  0
   -3.1867   -0.9767   -0.0835 O   0  0  0  0  0  0
   -3.5955   -2.3251    0.1186 C   0  0  1  0  0  0
   -4.3945   -2.2597    0.8718 H   0  0  0  0  0  0
   -4.0081   -2.9421   -1.1952 C   0  0  0  0  0  0
   -2.6707   -3.2981   -1.8131 C   0  0  0  0  0  0
   -1.7750   -3.5832   -0.7301 O   0  0  0  0  0  0
   -2.3869   -3.1553    0.4989 C   0  0  0  0  0  0
   -7.4480    0.6240   -5.2482 H   0  0  0  0  0  0
   -6.7353    0.1673   -6.8325 H   0  0  0  0  0  0
   -8.4312    0.7530   -6.7459 H   0  0  0  0  0  0
   -6.5619    3.6042   -8.0537 H   0  0  0  0  0  0
   -7.9206    2.4705   -8.3628 H   0  0  0  0  0  0
   -6.2246    1.8848   -8.4493 H   0  0  0  0  0  0
   -5.0251    1.5228   -6.0925 H   0  0  0  0  0  0
   -5.1544    3.2973   -6.3395 H   0  0  0  0  0  0
   -6.3257    3.4789   -4.0739 H   0  0  0  0  0  0
   -4.5866    0.9252   -3.8731 H   0  0  0  0  0  0
   -4.0881    0.2792   -1.8388 H   0  0  0  0  0  0
   -3.2020   -0.8334    2.4916 H   0  0  0  0  0  0
   -5.6596    2.7093    0.4332 H   0  0  0  0  0  0
   -4.8191    1.7117    5.9305 H   0  0  0  0  0  0
   -4.1467    4.3130    1.2085 H   0  0  0  0  0  0
   -8.1868    6.2690   -0.9102 H   0  0  0  0  0  0
   -8.3900    5.0311    1.2185 H   0  0  0  0  0  0
   -4.6415   -3.8210   -1.0047 H   0  0  0  0  0  0
   -4.5720   -2.2049   -1.7855 H   0  0  0  0  0  0
   -2.7895   -4.1778   -2.4628 H   0  0  0  0  0  0
   -2.3044   -2.4491   -2.4089 H   0  0  0  0  0  0
   -1.6910   -2.5408    1.0889 H   0  0  0  0  0  0
   -2.7097   -4.0203    1.0969 H   0  0  0  0  0  0
   -7.6640    2.9126   -6.0113 H   0  0  0  0  0  0
  1  2  1  0  0  0
  1 36  1  0  0  0
  1 37  1  0  0  0
  1 38  1  0  0  0
  2  3  1  0  0  0
  2  4  1  0  0  0
  2 59  1  0  0  0
  3 39  1  0  0  0
  3 40  1  0  0  0
  3 41  1  0  0  0
  4  5  1  0  0  0
  4 42  1  0  0  0
  4 43  1  0  0  0
  5  6  2  0  0  0
  5 44  1  0  0  0
  6  7  1  0  0  0
  6 45  1  0  0  0
  7  8  2  0  0  0
  7  9  1  0  0  0
  9 46  1  0  0  0
  9 10  1  0  0  0
 10 15  2  0  0  0
 10 11  1  0  0  0
 11 29  1  0  0  0
 11 12  2  0  0  0
 12 47  1  0  0  0
 12 13  1  0  0  0
 13 14  2  0  0  0
 13 19  1  0  0  0
 14 16  1  0  0  0
 14 15  1  0  0  0
 15 48  1  0  0  0
 16 20  2  0  0  0
 16 17  1  0  0  0
 17 18  1  0  0  0
 18 19  2  0  0  0
 18 49  1  0  0  0
 20 21  1  0  0  0
 21 26  2  0  0  0
 21 22  1  0  0  0
 22 23  2  0  0  0
 22 50  1  0  0  0
 23 24  1  0  0  0
 23 28  1  0  0  0
 24 25  2  0  0  0
 24 27  1  0  0  0
 25 26  1  0  0  0
 25 51  1  0  0  0
 26 52  1  0  0  0
 29 30  1  0  0  0
 30 31  1  0  0  0
 30 35  1  0  0  0
 30 32  1  0  0  0
 32 33  1  0  0  0
 32 53  1  0  0  0
 32 54  1  0  0  0
 33 34  1  0  0  0
 33 55  1  0  0  0
 33 56  1  0  0  0
 34 35  1  0  0  0
 35 57  1  0  0  0
 35 58  1  0  0  0
M  CHG  2   2   1  17  -1
M  END
> <s_m_source_file>
/Users/andrea/Development/mcce-charges/epik_inhibitors/output/Afatinib/Afatinib-input.mol2

> <i_m_source_file_index>
1

> <r_epik_Ionization_Penalty>
  8.7516

> <r_epik_Ionization_Penalty_Charging>
  1.5232

> <r_epik_Ionization_Penalty_Neutral>
  7.2284

> <r_epik_State_Penalty>
  9.4458

> <i_epik_Tot_Q>
0

> <s_epik_Chemistry_Notes>
This compound has an imine and may undergo hydrolysis.

$$$$
(~{E})-~{N}-[4-(3-chloro-4-fluoro-anilino)-7-[(3~{S})-tetrahydrofuran-3-yl]oxy-quinazolin-6-yl]-4-(dimethylamino)but-2-enamide
                    3D
 Structure written by MMmdl.
 58 61  0  0  1  0            999 V2000
   -7.4216    0.8592   -6.3224 C   0  0  0  0  0  0
   -6.9566    2.2331   -6.5093 N   0  0  0  0  0  0
   -6.9132    2.5690   -7.9319 C   0  0  0  0  0  0
   -5.6420    2.4135   -5.9023 C   0  0  0  0  0  0
   -5.7426    2.6126   -4.4193 C   0  0  0  0  0  0
   -5.1638    1.7956   -3.5279 C   0  0  0  0  0  0
   -5.2952    2.0565   -2.0634 C   0  0  0  0  0  0
   -5.9302    3.0162   -1.6425 O   0  0  0  0  0  0
   -4.6215    1.0925   -1.3249 N   0  0  0  0  0  0
   -4.5216    1.0074    0.0654 C   0  0  0  0  0  0
   -3.8074   -0.0228    0.6671 C   0  0  0  0  0  0
   -3.7161   -0.0919    2.0604 C   0  0  0  0  0  0
   -4.3304    0.8528    2.8788 C   0  0  0  0  0  0
   -5.0493    1.8882    2.2594 C   0  0  0  0  0  0
   -5.1443    1.9655    0.8590 C   0  0  0  0  0  0
   -5.6487    2.8131    3.1098 C   0  0  0  0  0  0
   -5.5715    2.7591    4.4528 N   0  5  0  0  0  0
   -4.8592    1.7265    4.9314 C   0  0  0  0  0  0
   -4.2334    0.7690    4.2172 N   0  0  0  0  0  0
   -6.3900    3.8870    2.5575 N   0  0  0  0  0  0
   -7.4938    4.6165    3.0273 C   0  0  0  0  0  0
   -8.4249    4.0084    3.8694 C   0  0  0  0  0  0
   -9.5204    4.7340    4.3373 C   0  0  0  0  0  0
   -9.6848    6.0677    3.9632 C   0  0  0  0  0  0
   -8.7538    6.6757    3.1211 C   0  0  0  0  0  0
   -7.6583    5.9501    2.6531 C   0  0  0  0  0  0
  -10.7337    6.7775    4.4033 F   0  0  0  0  0  0
  -10.6678    3.9770    5.3737 Cl  0  0  0  0  0  0
   -3.1867   -0.9767   -0.0835 O   0  0  0  0  0  0
   -3.5955   -2.3251    0.1186 C   0  0  1  0  0  0
   -4.3945   -2.2597    0.8718 H   0  0  0  0  0  0
   -4.0081   -2.9421   -1.1952 C   0  0  0  0  0  0
   -2.6707   -3.2981   -1.8131 C   0  0  0  0  0  0
   -1.7750   -3.5832   -0.7301 O   0  0  0  0  0  0
   -2.3869   -3.1553    0.4989 C   0  0  0  0  0  0
   -7.4480    0.6240   -5.2482 H   0  0  0  0  0  0
   -6.7353    0.1673   -6.8325 H   0  0  0  0  0  0
   -8.4312    0.7530   -6.7459 H   0  0  0  0  0  0
   -6.5619    3.6042   -8.0537 H   0  0  0  0  0  0
   -7.9206    2.4705   -8.3628 H   0  0  0  0  0  0
   -6.2246    1.8848   -8.4493 H   0  0  0  0  0  0
   -5.0251    1.5228   -6.0925 H   0  0  0  0  0  0
   -5.1544    3.2973   -6.3395 H   0  0  0  0  0  0
   -6.3257    3.4789   -4.0739 H   0  0  0  0  0  0
   -4.5866    0.9252   -3.8731 H   0  0  0  0  0  0
   -4.0881    0.2792   -1.8388 H   0  0  0  0  0  0
   -3.2020   -0.8334    2.4916 H   0  0  0  0  0  0
   -5.6596    2.7093    0.4332 H   0  0  0  0  0  0
   -4.8191    1.7117    5.9305 H   0  0  0  0  0  0
   -8.2932    2.9683    4.1599 H   0  0  0  0  0  0
   -8.8801    7.7147    2.8314 H   0  0  0  0  0  0
   -6.9384    6.4341    1.9980 H   0  0  0  0  0  0
   -4.6415   -3.8210   -1.0047 H   0  0  0  0  0  0
   -4.5720   -2.2049   -1.7855 H   0  0  0  0  0  0
   -2.7895   -4.1778   -2.4628 H   0  0  0  0  0  0
   -2.3044   -2.4491   -2.4089 H   0  0  0  0  0  0
   -1.6910   -2.5408    1.0889 H   0  0  0  0  0  0
   -2.7097   -4.0203    1.0969 H   0  0  0  0  0  0
  1  2  1  0  0  0
  1 36  1  0  0  0
  1 37  1  0  0  0
  1 38  1  0  0  0
  2  3  1  0  0  0
  2  4  1  0  0  0
  3 39  1  0  0  0
  3 40  1  0  0  0
  3 41  1  0  0  0
  4  5  1  0  0  0
  4 42  1  0  0  0
  4 43  1  0  0  0
  5  6  2  0  0  0
  5 44  1  0  0  0
  6  7  1  0  0  0
  6 45  1  0  0  0
  7  8  2  0  0  0
  7  9  1  0  0  0
  9 46  1  0  0  0
  9 10  1  0  0  0
 10 15  2  0  0  0
 10 11  1  0  0  0
 11 29  1  0  0  0
 11 12  2  0  0  0
 12 47  1  0  0  0
 12 13  1  0  0  0
 13 14  2  0  0  0
 13 19  1  0  0  0
 14 16  1  0  0  0
 14 15  1  0  0  0
 15 48  1  0  0  0
 16 20  2  0  0  0
 16 17  1  0  0  0
 17 18  1  0  0  0
 18 19  2  0  0  0
 18 49  1  0  0  0
 20 21  1  0  0  0
 21 26  2  0  0  0
 21 22  1  0  0  0
 22 23  2  0  0  0
 22 50  1  0  0  0
 23 24  1  0  0  0
 23 28  1  0  0  0
 24 25  2  0  0  0
 24 27  1  0  0  0
 25 26  1  0  0  0
 25 51  1  0  0  0
 26 52  1  0  0  0
 29 30  1  0  0  0
 30 31  1  0  0  0
 30 35  1  0  0  0
 30 32  1  0  0  0
 32 33  1  0  0  0
 32 53  1  0  0  0
 32 54  1  0  0  0
 33 34  1  0  0  0
 33 55  1  0  0  0
 33 56  1  0  0  0
 34 35  1  0  0  0
 35 57  1  0  0  0
 35 58  1  0  0  0
M  CHG  1  17  -1
M  END
> <s_m_source_file>
/Users/andrea/Development/mcce-charges/epik_inhibitors/output/Afatinib/Afatinib-input.mol2

> <i_m_source_file_index>
1

> <r_epik_Ionization_Penalty>
  9.0613

> <r_epik_Ionization_Penalty_Charging>
  1.2337

> <r_epik_Ionization_Penalty_Neutral>
  7.8276

> <r_epik_State_Penalty>
  9.6005

> <i_epik_Tot_Q>
-1

> <s_epik_Chemistry_Notes>
This compound has an imine and may undergo hydrolysis.

$$$$
(~{E})-~{N}-[4-(3-chloro-4-fluoro-anilino)-7-[(3~{S})-tetrahydrofuran-3-yl]oxy-quinazolin-6-yl]-4-(dimethylamino)but-2-enamide
                    3D
 Structure written by MMmdl.
 58 61  0  0  1  0            999 V2000
   -7.4216    0.8592   -6.3224 C   0  0  0  0  0  0
   -6.9566    2.2331   -6.5093 N   0  0  0  0  0  0
   -6.9132    2.5690   -7.9319 C   0  0  0  0  0  0
   -5.6420    2.4135   -5.9023 C   0  0  0  0  0  0
   -5.7426    2.6126   -4.4193 C   0  0  0  0  0  0
   -5.1638    1.7956   -3.5279 C   0  0  0  0  0  0
   -5.2952    2.0565   -2.0634 C   0  0  0  0  0  0
   -5.9302    3.0162   -1.6425 O   0  0  0  0  0  0
   -4.6215    1.0925   -1.3249 N   0  0  0  0  0  0
   -4.5216    1.0074    0.0654 C   0  0  0  0  0  0
   -3.8074   -0.0228    0.6671 C   0  0  0  0  0  0
   -3.7161   -0.0919    2.0604 C   0  0  0  0  0  0
   -4.3304    0.8528    2.8788 C   0  0  0  0  0  0
   -5.0493    1.8882    2.2594 C   0  0  0  0  0  0
   -5.1443    1.9655    0.8590 C   0  0  0  0  0  0
   -5.6487    2.8131    3.1098 C   0  0  0  0  0  0
   -5.5715    2.7591    4.4528 N   0  5  0  0  0  0
   -4.8592    1.7265    4.9314 C   0  0  0  0  0  0
   -4.2334    0.7690    4.2172 N   0  0  0  0  0  0
   -6.3900    3.8870    2.5575 N   0  0  0  0  0  0
   -6.2774    4.5932    1.3493 C   0  0  0  0  0  0
   -5.0304    4.7437    0.7426 C   0  0  0  0  0  0
   -4.9192    5.4439   -0.4586 C   0  0  0  0  0  0
   -6.0550    5.9936   -1.0532 C   0  0  0  0  0  0
   -7.3019    5.8432   -0.4465 C   0  0  0  0  0  0
   -7.4131    5.1430    0.7548 C   0  0  0  0  0  0
   -5.9637    6.6709   -2.2067 F   0  0  0  0  0  0
   -3.3769    5.6289   -1.2008 Cl  0  0  0  0  0  0
   -3.1867   -0.9767   -0.0835 O   0  0  0  0  0  0
   -3.5955   -2.3251    0.1186 C   0  0  1  0  0  0
   -4.3945   -2.2597    0.8718 H   0  0  0  0  0  0
   -4.0081   -2.9421   -1.1952 C   0  0  0  0  0  0
   -2.6707   -3.2981   -1.8131 C   0  0  0  0  0  0
   -1.7750   -3.5832   -0.7301 O   0  0  0  0  0  0
   -2.3869   -3.1553    0.4989 C   0  0  0  0  0  0
   -7.4480    0.6240   -5.2482 H   0  0  0  0  0  0
   -6.7353    0.1673   -6.8325 H   0  0  0  0  0  0
   -8.4312    0.7530   -6.7459 H   0  0  0  0  0  0
   -6.5619    3.6042   -8.0537 H   0  0  0  0  0  0
   -7.9206    2.4705   -8.3628 H   0  0  0  0  0  0
   -6.2246    1.8848   -8.4493 H   0  0  0  0  0  0
   -5.0251    1.5228   -6.0925 H   0  0  0  0  0  0
   -5.1544    3.2973   -6.3395 H   0  0  0  0  0  0
   -6.3257    3.4789   -4.0739 H   0  0  0  0  0  0
   -4.5866    0.9252   -3.8731 H   0  0  0  0  0  0
   -4.0881    0.2792   -1.8388 H   0  0  0  0  0  0
   -3.2020   -0.8334    2.4916 H   0  0  0  0  0  0
   -5.6596    2.7093    0.4332 H   0  0  0  0  0  0
   -4.8191    1.7117    5.9305 H   0  0  0  0  0  0
   -4.1467    4.3130    1.2085 H   0  0  0  0  0  0
   -8.1868    6.2690   -0.9102 H   0  0  0  0  0  0
   -8.3900    5.0311    1.2185 H   0  0  0  0  0  0
   -4.6415   -3.8210   -1.0047 H   0  0  0  0  0  0
   -4.5720   -2.2049   -1.7855 H   0  0  0  0  0  0
   -2.7895   -4.1778   -2.4628 H   0  0  0  0  0  0
   -2.3044   -2.4491   -2.4089 H   0  0  0  0  0  0
   -1.6910   -2.5408    1.0889 H   0  0  0  0  0  0
   -2.7097   -4.0203    1.0969 H   0  0  0  0  0  0
  1  2  1  0  0  0
  1 36  1  0  0  0
  1 37  1  0  0  0
  1 38  1  0  0  0
  2  3  1  0  0  0
  2  4  1  0  0  0
  3 39  1  0  0  0
  3 40  1  0  0  0
  3 41  1  0  0  0
  4  5  1  0  0  0
  4 42  1  0  0  0
  4 43  1  0  0  0
  5  6  2  0  0  0
  5 44  1  0  0  0
  6  7  1  0  0  0
  6 45  1  0  0  0
  7  8  2  0  0  0
  7  9  1  0  0  0
  9 46  1  0  0  0
  9 10  1  0  0  0
 10 15  2  0  0  0
 10 11  1  0  0  0
 11 29  1  0  0  0
 11 12  2  0  0  0
 12 47  1  0  0  0
 12 13  1  0  0  0
 13 14  2  0  0  0
 13 19  1  0  0  0
 14 16  1  0  0  0
 14 15  1  0  0  0
 15 48  1  0  0  0
 16 20  2  0  0  0
 16 17  1  0  0  0
 17 18  1  0  0  0
 18 19  2  0  0  0
 18 49  1  0  0  0
 20 21  1  0  0  0
 21 26  2  0  0  0
 21 22  1  0  0  0
 22 23  2  0  0  0
 22 50  1  0  0  0
 23 24  1  0  0  0
 23 28  1  0  0  0
 24 25  2  0  0  0
 24 27  1  0  0  0
 25 26  1  0  0  0
 25 51  1  0  0  0
 26 52  1  0  0  0
 29 30  1  0  0  0
 30 31  1  0  0  0
 30 35  1  0  0  0
 30 32  1  0  0  0
 32 33  1  0  0  0
 32 53  1  0  0  0
 32 54  1  0  0  0
 33 34  1  0  0  0
 33 55  1  0  0  0
 33 56  1  0  0  0
 34 35  1  0  0  0
 35 57  1  0  0  0
 35 58  1  0  0  0
M  CHG  1  17  -1
M  END
> <s_m_source_file>
/Users/andrea/Development/mcce-charges/epik_inhibitors/output/Afatinib/Afatinib-input.mol2

> <i_m_source_file_index>
1

> <r_epik_Ionization_Penalty>
  9.0613

> <r_epik_Ionization_Penalty_Charging>
  1.2337

> <r_epik_Ionization_Penalty_Neutral>
  7.8276

> <r_epik_State_Penalty>
  9.6005

> <i_epik_Tot_Q>
-1

> <s_epik_Chemistry_Notes>
This compound has an imine and may undergo hydrolysis.

$$$$
(~{E})-~{N}-[4-(3-chloro-4-fluoro-anilino)-7-[(3~{S})-tetrahydrofuran-3-yl]oxy-quinazolin-6-yl]-4-(dimethylamino)but-2-enamide
                    3D
 Structure written by MMmdl.
 60 63  0  0  1  0            999 V2000
   -7.4216    0.8592   -6.3224 C   0  0  0  0  0  0
   -6.9566    2.2331   -6.5093 N   0  3  0  0  0  0
   -6.9132    2.5690   -7.9319 C   0  0  0  0  0  0
   -5.6420    2.4135   -5.9023 C   0  0  0  0  0  0
   -5.7426    2.6126   -4.4193 C   0  0  0  0  0  0
   -5.1638    1.7956   -3.5279 C   0  0  0  0  0  0
   -5.2952    2.0565   -2.0634 C   0  0  0  0  0  0
   -5.9302    3.0162   -1.6425 O   0  3  0  0  0  0
   -4.6215    1.0925   -1.3249 N   0  5  0  0  0  0
   -4.5216    1.0074    0.0654 C   0  0  0  0  0  0
   -3.8074   -0.0228    0.6671 C   0  0  0  0  0  0
   -3.7161   -0.0919    2.0604 C   0  0  0  0  0  0
   -4.3304    0.8528    2.8788 C   0  0  0  0  0  0
   -5.0493    1.8882    2.2594 C   0  0  0  0  0  0
   -5.1443    1.9655    0.8590 C   0  0  0  0  0  0
   -5.6487    2.8131    3.1098 C   0  0  0  0  0  0
   -5.5715    2.7591    4.4528 N   0  0  0  0  0  0
   -4.8592    1.7265    4.9314 C   0  0  0  0  0  0
   -4.2334    0.7690    4.2172 N   0  0  0  0  0  0
   -6.3900    3.8870    2.5575 N   0  0  0  0  0  0
   -7.4938    4.6165    3.0273 C   0  0  0  0  0  0
   -8.4249    4.0084    3.8694 C   0  0  0  0  0  0
   -9.5204    4.7340    4.3373 C   0  0  0  0  0  0
   -9.6848    6.0677    3.9632 C   0  0  0  0  0  0
   -8.7538    6.6757    3.1211 C   0  0  0  0  0  0
   -7.6583    5.9501    2.6531 C   0  0  0  0  0  0
  -10.7337    6.7775    4.4033 F   0  0  0  0  0  0
  -10.6678    3.9770    5.3737 Cl  0  0  0  0  0  0
   -3.1867   -0.9767   -0.0835 O   0  0  0  0  0  0
   -3.5955   -2.3251    0.1186 C   0  0  1  0  0  0
   -4.3945   -2.2597    0.8718 H   0  0  0  0  0  0
   -4.0081   -2.9421   -1.1952 C   0  0  0  0  0  0
   -2.6707   -3.2981   -1.8131 C   0  0  0  0  0  0
   -1.7750   -3.5832   -0.7301 O   0  0  0  0  0  0
   -2.3869   -3.1553    0.4989 C   0  0  0  0  0  0
   -7.4480    0.6240   -5.2482 H   0  0  0  0  0  0
   -6.7353    0.1673   -6.8325 H   0  0  0  0  0  0
   -8.4312    0.7530   -6.7459 H   0  0  0  0  0  0
   -6.5619    3.6042   -8.0537 H   0  0  0  0  0  0
   -7.9206    2.4705   -8.3628 H   0  0  0  0  0  0
   -6.2246    1.8848   -8.4493 H   0  0  0  0  0  0
   -5.0251    1.5228   -6.0925 H   0  0  0  0  0  0
   -5.1544    3.2973   -6.3395 H   0  0  0  0  0  0
   -6.3257    3.4789   -4.0739 H   0  0  0  0  0  0
   -4.5866    0.9252   -3.8731 H   0  0  0  0  0  0
   -3.2020   -0.8334    2.4916 H   0  0  0  0  0  0
   -5.6596    2.7093    0.4332 H   0  0  0  0  0  0
   -4.8191    1.7117    5.9305 H   0  0  0  0  0  0
   -8.2932    2.9683    4.1599 H   0  0  0  0  0  0
   -8.8801    7.7147    2.8314 H   0  0  0  0  0  0
   -6.9384    6.4341    1.9980 H   0  0  0  0  0  0
   -4.6415   -3.8210   -1.0047 H   0  0  0  0  0  0
   -4.5720   -2.2049   -1.7855 H   0  0  0  0  0  0
   -2.7895   -4.1778   -2.4628 H   0  0  0  0  0  0
   -2.3044   -2.4491   -2.4089 H   0  0  0  0  0  0
   -1.6910   -2.5408    1.0889 H   0  0  0  0  0  0
   -2.7097   -4.0203    1.0969 H   0  0  0  0  0  0
   -6.0133    3.1884   -0.5592 H   0  0  0  0  0  0
   -6.0351    3.4760    5.1465 H   0  0  0  0  0  0
   -7.6640    2.9126   -6.0113 H   0  0  0  0  0  0
  1  2  1  0  0  0
  1 36  1  0  0  0
  1 37  1  0  0  0
  1 38  1  0  0  0
  2  3  1  0  0  0
  2  4  1  0  0  0
  2 60  1  0  0  0
  3 39  1  0  0  0
  3 40  1  0  0  0
  3 41  1  0  0  0
  4  5  1  0  0  0
  4 42  1  0  0  0
  4 43  1  0  0  0
  5  6  2  0  0  0
  5 44  1  0  0  0
  6  7  1  0  0  0
  6 45  1  0  0  0
  7  8  2  0  0  0
  7  9  1  0  0  0
  8 58  1  0  0  0
  9 10  1  0  0  0
 10 15  2  0  0  0
 10 11  1  0  0  0
 11 29  1  0  0  0
 11 12  2  0  0  0
 12 46  1  0  0  0
 12 13  1  0  0  0
 13 14  2  0  0  0
 13 19  1  0  0  0
 14 16  1  0  0  0
 14 15  1  0  0  0
 15 47  1  0  0  0
 16 20  2  0  0  0
 16 17  1  0  0  0
 17 18  1  0  0  0
 17 59  1  0  0  0
 18 19  2  0  0  0
 18 48  1  0  0  0
 20 21  1  0  0  0
 21 26  2  0  0  0
 21 22  1  0  0  0
 22 23  2  0  0  0
 22 49  1  0  0  0
 23 24  1  0  0  0
 23 28  1  0  0  0
 24 25  2  0  0  0
 24 27  1  0  0  0
 25 26  1  0  0  0
 25 50  1  0  0  0
 26 51  1  0  0  0
 29 30  1  0  0  0
 30 31  1  0  0  0
 30 35  1  0  0  0
 30 32  1  0  0  0
 32 33  1  0  0  0
 32 52  1  0  0  0
 32 53  1  0  0  0
 33 34  1  0  0  0
 33 54  1  0  0  0
 33 55  1  0  0  0
 34 35  1  0  0  0
 35 56  1  0  0  0
 35 57  1  0  0  0
M  CHG  3   2   1   8   1   9  -1
M  END
> <s_m_source_file>
/Users/andrea/Development/mcce-charges/epik_inhibitors/output/Afatinib/Afatinib-input.mol2

> <i_m_source_file_index>
1

> <r_epik_Ionization_Penalty>
  4.2564

> <r_epik_Ionization_Penalty_Charging>
  4.2564

> <r_epik_Ionization_Penalty_Neutral>
  0.0000

> <r_epik_State_Penalty>
 10.7211

> <i_epik_Tot_Q>
1

$$$$
(~{E})-~{N}-[4-(3-chloro-4-fluoro-anilino)-7-[(3~{S})-tetrahydrofuran-3-yl]oxy-quinazolin-6-yl]-4-(dimethylamino)but-2-enamide
                    3D
 Structure written by MMmdl.
 60 63  0  0  1  0            999 V2000
   -7.4216    0.8592   -6.3224 C   0  0  0  0  0  0
   -6.9566    2.2331   -6.5093 N   0  3  0  0  0  0
   -6.9132    2.5690   -7.9319 C   0  0  0  0  0  0
   -5.6420    2.4135   -5.9023 C   0  0  0  0  0  0
   -5.7426    2.6126   -4.4193 C   0  0  0  0  0  0
   -5.1638    1.7956   -3.5279 C   0  0  0  0  0  0
   -5.2952    2.0565   -2.0634 C   0  0  0  0  0  0
   -5.9302    3.0162   -1.6425 O   0  3  0  0  0  0
   -4.6215    1.0925   -1.3249 N   0  5  0  0  0  0
   -4.5216    1.0074    0.0654 C   0  0  0  0  0  0
   -3.8074   -0.0228    0.6671 C   0  0  0  0  0  0
   -3.7161   -0.0919    2.0604 C   0  0  0  0  0  0
   -4.3304    0.8528    2.8788 C   0  0  0  0  0  0
   -5.0493    1.8882    2.2594 C   0  0  0  0  0  0
   -5.1443    1.9655    0.8590 C   0  0  0  0  0  0
   -5.6487    2.8131    3.1098 C   0  0  0  0  0  0
   -5.5715    2.7591    4.4528 N   0  0  0  0  0  0
   -4.8592    1.7265    4.9314 C   0  0  0  0  0  0
   -4.2334    0.7690    4.2172 N   0  0  0  0  0  0
   -6.3900    3.8870    2.5575 N   0  0  0  0  0  0
   -6.2774    4.5932    1.3493 C   0  0  0  0  0  0
   -5.0304    4.7437    0.7426 C   0  0  0  0  0  0
   -4.9192    5.4439   -0.4586 C   0  0  0  0  0  0
   -6.0550    5.9936   -1.0532 C   0  0  0  0  0  0
   -7.3019    5.8432   -0.4465 C   0  0  0  0  0  0
   -7.4131    5.1430    0.7548 C   0  0  0  0  0  0
   -5.9637    6.6709   -2.2067 F   0  0  0  0  0  0
   -3.3769    5.6289   -1.2008 Cl  0  0  0  0  0  0
   -3.1867   -0.9767   -0.0835 O   0  0  0  0  0  0
   -3.5955   -2.3251    0.1186 C   0  0  1  0  0  0
   -4.3945   -2.2597    0.8718 H   0  0  0  0  0  0
   -4.0081   -2.9421   -1.1952 C   0  0  0  0  0  0
   -2.6707   -3.2981   -1.8131 C   0  0  0  0  0  0
   -1.7750   -3.5832   -0.7301 O   0  0  0  0  0  0
   -2.3869   -3.1553    0.4989 C   0  0  0  0  0  0
   -7.4480    0.6240   -5.2482 H   0  0  0  0  0  0
   -6.7353    0.1673   -6.8325 H   0  0  0  0  0  0
   -8.4312    0.7530   -6.7459 H   0  0  0  0  0  0
   -6.5619    3.6042   -8.0537 H   0  0  0  0  0  0
   -7.9206    2.4705   -8.3628 H   0  0  0  0  0  0
   -6.2246    1.8848   -8.4493 H   0  0  0  0  0  0
   -5.0251    1.5228   -6.0925 H   0  0  0  0  0  0
   -5.1544    3.2973   -6.3395 H   0  0  0  0  0  0
   -6.3257    3.4789   -4.0739 H   0  0  0  0  0  0
   -4.5866    0.9252   -3.8731 H   0  0  0  0  0  0
   -3.2020   -0.8334    2.4916 H   0  0  0  0  0  0
   -5.6596    2.7093    0.4332 H   0  0  0  0  0  0
   -4.8191    1.7117    5.9305 H   0  0  0  0  0  0
   -4.1467    4.3130    1.2085 H   0  0  0  0  0  0
   -8.1868    6.2690   -0.9102 H   0  0  0  0  0  0
   -8.3900    5.0311    1.2185 H   0  0  0  0  0  0
   -4.6415   -3.8210   -1.0047 H   0  0  0  0  0  0
   -4.5720   -2.2049   -1.7855 H   0  0  0  0  0  0
   -2.7895   -4.1778   -2.4628 H   0  0  0  0  0  0
   -2.3044   -2.4491   -2.4089 H   0  0  0  0  0  0
   -1.6910   -2.5408    1.0889 H   0  0  0  0  0  0
   -2.7097   -4.0203    1.0969 H   0  0  0  0  0  0
   -6.0133    3.1884   -0.5592 H   0  0  0  0  0  0
   -6.0351    3.4760    5.1465 H   0  0  0  0  0  0
   -7.6640    2.9126   -6.0113 H   0  0  0  0  0  0
  1  2  1  0  0  0
  1 36  1  0  0  0
  1 37  1  0  0  0
  1 38  1  0  0  0
  2  3  1  0  0  0
  2  4  1  0  0  0
  2 60  1  0  0  0
  3 39  1  0  0  0
  3 40  1  0  0  0
  3 41  1  0  0  0
  4  5  1  0  0  0
  4 42  1  0  0  0
  4 43  1  0  0  0
  5  6  2  0  0  0
  5 44  1  0  0  0
  6  7  1  0  0  0
  6 45  1  0  0  0
  7  8  2  0  0  0
  7  9  1  0  0  0
  8 58  1  0  0  0
  9 10  1  0  0  0
 10 15  2  0  0  0
 10 11  1  0  0  0
 11 29  1  0  0  0
 11 12  2  0  0  0
 12 46  1  0  0  0
 12 13  1  0  0  0
 13 14  2  0  0  0
 13 19  1  0  0  0
 14 16  1  0  0  0
 14 15  1  0  0  0
 15 47  1  0  0  0
 16 20  2  0  0  0
 16 17  1  0  0  0
 17 18  1  0  0  0
 17 59  1  0  0  0
 18 19  2  0  0  0
 18 48  1  0  0  0
 20 21  1  0  0  0
 21 26  2  0  0  0
 21 22  1  0  0  0
 22 23  2  0  0  0
 22 49  1  0  0  0
 23 24  1  0  0  0
 23 28  1  0  0  0
 24 25  2  0  0  0
 24 27  1  0  0  0
 25 26  1  0  0  0
 25 50  1  0  0  0
 26 51  1  0  0  0
 29 30  1  0  0  0
 30 31  1  0  0  0
 30 35  1  0  0  0
 30 32  1  0  0  0
 32 33  1  0  0  0
 32 52  1  0  0  0
 32 53  1  0  0  0
 33 34  1  0  0  0
 33 54  1  0  0  0
 33 55  1  0  0  0
 34 35  1  0  0  0
 35 56  1  0  0  0
 35 57  1  0  0  0
M  CHG  3   2   1   8   1   9  -1
M  END
> <s_m_source_file>
/Users/andrea/Development/mcce-charges/epik_inhibitors/output/Afatinib/Afatinib-input.mol2

> <i_m_source_file_index>
1

> <r_epik_Ionization_Penalty>
  4.2564

> <r_epik_Ionization_Penalty_Charging>
  4.2564

> <r_epik_Ionization_Penalty_Neutral>
  0.0000

> <r_epik_State_Penalty>
 10.7211

> <i_epik_Tot_Q>
1

$$$$
(~{E})-~{N}-[4-(3-chloro-4-fluoro-anilino)-7-[(3~{S})-tetrahydrofuran-3-yl]oxy-quinazolin-6-yl]-4-(dimethylamino)but-2-enamide
                    3D
 Structure written by MMmdl.
 59 62  0  0  1  0            999 V2000
   -7.4216    0.8592   -6.3224 C   0  0  0  0  0  0
   -6.9566    2.2331   -6.5093 N   0  0  0  0  0  0
   -6.9132    2.5690   -7.9319 C   0  0  0  0  0  0
   -5.6420    2.4135   -5.9023 C   0  0  0  0  0  0
   -5.7426    2.6126   -4.4193 C   0  0  0  0  0  0
   -5.1638    1.7956   -3.5279 C   0  0  0  0  0  0
   -5.2952    2.0565   -2.0634 C   0  0  0  0  0  0
   -5.9302    3.0162   -1.6425 O   0  3  0  0  0  0
   -4.6215    1.0925   -1.3249 N   0  5  0  0  0  0
   -4.5216    1.0074    0.0654 C   0  0  0  0  0  0
   -3.8074   -0.0228    0.6671 C   0  0  0  0  0  0
   -3.7161   -0.0919    2.0604 C   0  0  0  0  0  0
   -4.3304    0.8528    2.8788 C   0  0  0  0  0  0
   -5.0493    1.8882    2.2594 C   0  0  0  0  0  0
   -5.1443    1.9655    0.8590 C   0  0  0  0  0  0
   -5.6487    2.8131    3.1098 C   0  0  0  0  0  0
   -5.5715    2.7591    4.4528 N   0  0  0  0  0  0
   -4.8592    1.7265    4.9314 C   0  0  0  0  0  0
   -4.2334    0.7690    4.2172 N   0  0  0  0  0  0
   -6.3900    3.8870    2.5575 N   0  0  0  0  0  0
   -7.4938    4.6165    3.0273 C   0  0  0  0  0  0
   -8.4249    4.0084    3.8694 C   0  0  0  0  0  0
   -9.5204    4.7340    4.3373 C   0  0  0  0  0  0
   -9.6848    6.0677    3.9632 C   0  0  0  0  0  0
   -8.7538    6.6757    3.1211 C   0  0  0  0  0  0
   -7.6583    5.9501    2.6531 C   0  0  0  0  0  0
  -10.7337    6.7775    4.4033 F   0  0  0  0  0  0
  -10.6678    3.9770    5.3737 Cl  0  0  0  0  0  0
   -3.1867   -0.9767   -0.0835 O   0  0  0  0  0  0
   -3.5955   -2.3251    0.1186 C   0  0  1  0  0  0
   -4.3945   -2.2597    0.8718 H   0  0  0  0  0  0
   -4.0081   -2.9421   -1.1952 C   0  0  0  0  0  0
   -2.6707   -3.2981   -1.8131 C   0  0  0  0  0  0
   -1.7750   -3.5832   -0.7301 O   0  0  0  0  0  0
   -2.3869   -3.1553    0.4989 C   0  0  0  0  0  0
   -7.4480    0.6240   -5.2482 H   0  0  0  0  0  0
   -6.7353    0.1673   -6.8325 H   0  0  0  0  0  0
   -8.4312    0.7530   -6.7459 H   0  0  0  0  0  0
   -6.5619    3.6042   -8.0537 H   0  0  0  0  0  0
   -7.9206    2.4705   -8.3628 H   0  0  0  0  0  0
   -6.2246    1.8848   -8.4493 H   0  0  0  0  0  0
   -5.0251    1.5228   -6.0925 H   0  0  0  0  0  0
   -5.1544    3.2973   -6.3395 H   0  0  0  0  0  0
   -6.3257    3.4789   -4.0739 H   0  0  0  0  0  0
   -4.5866    0.9252   -3.8731 H   0  0  0  0  0  0
   -3.2020   -0.8334    2.4916 H   0  0  0  0  0  0
   -5.6596    2.7093    0.4332 H   0  0  0  0  0  0
   -4.8191    1.7117    5.9305 H   0  0  0  0  0  0
   -8.2932    2.9683    4.1599 H   0  0  0  0  0  0
   -8.8801    7.7147    2.8314 H   0  0  0  0  0  0
   -6.9384    6.4341    1.9980 H   0  0  0  0  0  0
   -4.6415   -3.8210   -1.0047 H   0  0  0  0  0  0
   -4.5720   -2.2049   -1.7855 H   0  0  0  0  0  0
   -2.7895   -4.1778   -2.4628 H   0  0  0  0  0  0
   -2.3044   -2.4491   -2.4089 H   0  0  0  0  0  0
   -1.6910   -2.5408    1.0889 H   0  0  0  0  0  0
   -2.7097   -4.0203    1.0969 H   0  0  0  0  0  0
   -6.0133    3.1884   -0.5592 H   0  0  0  0  0  0
   -6.0351    3.4760    5.1465 H   0  0  0  0  0  0
  1  2  1  0  0  0
  1 36  1  0  0  0
  1 37  1  0  0  0
  1 38  1  0  0  0
  2  3  1  0  0  0
  2  4  1  0  0  0
  3 39  1  0  0  0
  3 40  1  0  0  0
  3 41  1  0  0  0
  4  5  1  0  0  0
  4 42  1  0  0  0
  4 43  1  0  0  0
  5  6  2  0  0  0
  5 44  1  0  0  0
  6  7  1  0  0  0
  6 45  1  0  0  0
  7  8  2  0  0  0
  7  9  1  0  0  0
  8 58  1  0  0  0
  9 10  1  0  0  0
 10 15  2  0  0  0
 10 11  1  0  0  0
 11 29  1  0  0  0
 11 12  2  0  0  0
 12 46  1  0  0  0
 12 13  1  0  0  0
 13 14  2  0  0  0
 13 19  1  0  0  0
 14 16  1  0  0  0
 14 15  1  0  0  0
 15 47  1  0  0  0
 16 20  2  0  0  0
 16 17  1  0  0  0
 17 18  1  0  0  0
 17 59  1  0  0  0
 18 19  2  0  0  0
 18 48  1  0  0  0
 20 21  1  0  0  0
 21 26  2  0  0  0
 21 22  1  0  0  0
 22 23  2  0  0  0
 22 49  1  0  0  0
 23 24  1  0  0  0
 23 28  1  0  0  0
 24 25  2  0  0  0
 24 27  1  0  0  0
 25 26  1  0  0  0
 25 50  1  0  0  0
 26 51  1  0  0  0
 29 30  1  0  0  0
 30 31  1  0  0  0
 30 35  1  0  0  0
 30 32  1  0  0  0
 32 33  1  0  0  0
 32 52  1  0  0  0
 32 53  1  0  0  0
 33 34  1  0  0  0
 33 54  1  0  0  0
 33 55  1  0  0  0
 34 35  1  0  0  0
 35 56  1  0  0  0
 35 57  1  0  0  0
M  CHG  2   8   1   9  -1
M  END
> <s_m_source_file>
/Users/andrea/Development/mcce-charges/epik_inhibitors/output/Afatinib/Afatinib-input.mol2

> <i_m_source_file_index>
1

> <r_epik_Ionization_Penalty>
  5.9431

> <r_epik_Ionization_Penalty_Charging>
  4.2296

> <r_epik_Ionization_Penalty_Neutral>
  1.7135

> <r_epik_State_Penalty>
 12.5276

> <i_epik_Tot_Q>
0

$$$$
(~{E})-~{N}-[4-(3-chloro-4-fluoro-anilino)-7-[(3~{S})-tetrahydrofuran-3-yl]oxy-quinazolin-6-yl]-4-(dimethylamino)but-2-enamide
                    3D
 Structure written by MMmdl.
 59 62  0  0  1  0            999 V2000
   -7.4216    0.8592   -6.3224 C   0  0  0  0  0  0
   -6.9566    2.2331   -6.5093 N   0  0  0  0  0  0
   -6.9132    2.5690   -7.9319 C   0  0  0  0  0  0
   -5.6420    2.4135   -5.9023 C   0  0  0  0  0  0
   -5.7426    2.6126   -4.4193 C   0  0  0  0  0  0
   -5.1638    1.7956   -3.5279 C   0  0  0  0  0  0
   -5.2952    2.0565   -2.0634 C   0  0  0  0  0  0
   -5.9302    3.0162   -1.6425 O   0  3  0  0  0  0
   -4.6215    1.0925   -1.3249 N   0  5  0  0  0  0
   -4.5216    1.0074    0.0654 C   0  0  0  0  0  0
   -3.8074   -0.0228    0.6671 C   0  0  0  0  0  0
   -3.7161   -0.0919    2.0604 C   0  0  0  0  0  0
   -4.3304    0.8528    2.8788 C   0  0  0  0  0  0
   -5.0493    1.8882    2.2594 C   0  0  0  0  0  0
   -5.1443    1.9655    0.8590 C   0  0  0  0  0  0
   -5.6487    2.8131    3.1098 C   0  0  0  0  0  0
   -5.5715    2.7591    4.4528 N   0  0  0  0  0  0
   -4.8592    1.7265    4.9314 C   0  0  0  0  0  0
   -4.2334    0.7690    4.2172 N   0  0  0  0  0  0
   -6.3900    3.8870    2.5575 N   0  0  0  0  0  0
   -6.2774    4.5932    1.3493 C   0  0  0  0  0  0
   -5.0304    4.7437    0.7426 C   0  0  0  0  0  0
   -4.9192    5.4439   -0.4586 C   0  0  0  0  0  0
   -6.0550    5.9936   -1.0532 C   0  0  0  0  0  0
   -7.3019    5.8432   -0.4465 C   0  0  0  0  0  0
   -7.4131    5.1430    0.7548 C   0  0  0  0  0  0
   -5.9637    6.6709   -2.2067 F   0  0  0  0  0  0
   -3.3769    5.6289   -1.2008 Cl  0  0  0  0  0  0
   -3.1867   -0.9767   -0.0835 O   0  0  0  0  0  0
   -3.5955   -2.3251    0.1186 C   0  0  1  0  0  0
   -4.3945   -2.2597    0.8718 H   0  0  0  0  0  0
   -4.0081   -2.9421   -1.1952 C   0  0  0  0  0  0
   -2.6707   -3.2981   -1.8131 C   0  0  0  0  0  0
   -1.7750   -3.5832   -0.7301 O   0  0  0  0  0  0
   -2.3869   -3.1553    0.4989 C   0  0  0  0  0  0
   -7.4480    0.6240   -5.2482 H   0  0  0  0  0  0
   -6.7353    0.1673   -6.8325 H   0  0  0  0  0  0
   -8.4312    0.7530   -6.7459 H   0  0  0  0  0  0
   -6.5619    3.6042   -8.0537 H   0  0  0  0  0  0
   -7.9206    2.4705   -8.3628 H   0  0  0  0  0  0
   -6.2246    1.8848   -8.4493 H   0  0  0  0  0  0
   -5.0251    1.5228   -6.0925 H   0  0  0  0  0  0
   -5.1544    3.2973   -6.3395 H   0  0  0  0  0  0
   -6.3257    3.4789   -4.0739 H   0  0  0  0  0  0
   -4.5866    0.9252   -3.8731 H   0  0  0  0  0  0
   -3.2020   -0.8334    2.4916 H   0  0  0  0  0  0
   -5.6596    2.7093    0.4332 H   0  0  0  0  0  0
   -4.8191    1.7117    5.9305 H   0  0  0  0  0  0
   -4.1467    4.3130    1.2085 H   0  0  0  0  0  0
   -8.1868    6.2690   -0.9102 H   0  0  0  0  0  0
   -8.3900    5.0311    1.2185 H   0  0  0  0  0  0
   -4.6415   -3.8210   -1.0047 H   0  0  0  0  0  0
   -4.5720   -2.2049   -1.7855 H   0  0  0  0  0  0
   -2.7895   -4.1778   -2.4628 H   0  0  0  0  0  0
   -2.3044   -2.4491   -2.4089 H   0  0  0  0  0  0
   -1.6910   -2.5408    1.0889 H   0  0  0  0  0  0
   -2.7097   -4.0203    1.0969 H   0  0  0  0  0  0
   -6.0133    3.1884   -0.5592 H   0  0  0  0  0  0
   -6.0351    3.4760    5.1465 H   0  0  0  0  0  0
  1  2  1  0  0  0
  1 36  1  0  0  0
  1 37  1  0  0  0
  1 38  1  0  0  0
  2  3  1  0  0  0
  2  4  1  0  0  0
  3 39  1  0  0  0
  3 40  1  0  0  0
  3 41  1  0  0  0
  4  5  1  0  0  0
  4 42  1  0  0  0
  4 43  1  0  0  0
  5  6  2  0  0  0
  5 44  1  0  0  0
  6  7  1  0  0  0
  6 45  1  0  0  0
  7  8  2  0  0  0
  7  9  1  0  0  0
  8 58  1  0  0  0
  9 10  1  0  0  0
 10 15  2  0  0  0
 10 11  1  0  0  0
 11 29  1  0  0  0
 11 12  2  0  0  0
 12 46  1  0  0  0
 12 13  1  0  0  0
 13 14  2  0  0  0
 13 19  1  0  0  0
 14 16  1  0  0  0
 14 15  1  0  0  0
 15 47  1  0  0  0
 16 20  2  0  0  0
 16 17  1  0  0  0
 17 18  1  0  0  0
 17 59  1  0  0  0
 18 19  2  0  0  0
 18 48  1  0  0  0
 20 21  1  0  0  0
 21 26  2  0  0  0
 21 22  1  0  0  0
 22 23  2  0  0  0
 22 49  1  0  0  0
 23 24  1  0  0  0
 23 28  1  0  0  0
 24 25  2  0  0  0
 24 27  1  0  0  0
 25 26  1  0  0  0
 25 50  1  0  0  0
 26 51  1  0  0  0
 29 30  1  0  0  0
 30 31  1  0  0  0
 30 35  1  0  0  0
 30 32  1  0  0  0
 32 33  1  0  0  0
 32 52  1  0  0  0
 32 53  1  0  0  0
 33 34  1  0  0  0
 33 54  1  0  0  0
 33 55  1  0  0  0
 34 35  1  0  0  0
 35 56  1  0  0  0
 35 57  1  0  0  0
M  CHG  2   8   1   9  -1
M  END
> <s_m_source_file>
/Users/andrea/Development/mcce-charges/epik_inhibitors/output/Afatinib/Afatinib-input.mol2

> <i_m_source_file_index>
1

> <r_epik_Ionization_Penalty>
  5.9431

> <r_epik_Ionization_Penalty_Charging>
  4.2296

> <r_epik_Ionization_Penalty_Neutral>
  1.7135

> <r_epik_State_Penalty>
 12.5276

> <i_epik_Tot_Q>
0

$$$$
(~{E})-~{N}-[4-(3-chloro-4-fluoro-anilino)-7-[(3~{S})-tetrahydrofuran-3-yl]oxy-quinazolin-6-yl]-4-(dimethylamino)but-2-enamide
                    3D
 Structure written by MMmdl.
 59 62  0  0  1  0            999 V2000
   -7.4216    0.8592   -6.3224 C   0  0  0  0  0  0
   -6.9566    2.2331   -6.5093 N   0  3  0  0  0  0
   -6.9132    2.5690   -7.9319 C   0  0  0  0  0  0
   -5.6420    2.4135   -5.9023 C   0  0  0  0  0  0
   -5.7426    2.6126   -4.4193 C   0  0  0  0  0  0
   -5.1638    1.7956   -3.5279 C   0  0  0  0  0  0
   -5.2952    2.0565   -2.0634 C   0  0  0  0  0  0
   -5.9302    3.0162   -1.6425 O   0  3  0  0  0  0
   -4.6215    1.0925   -1.3249 N   0  5  0  0  0  0
   -4.5216    1.0074    0.0654 C   0  0  0  0  0  0
   -3.8074   -0.0228    0.6671 C   0  0  0  0  0  0
   -3.7161   -0.0919    2.0604 C   0  0  0  0  0  0
   -4.3304    0.8528    2.8788 C   0  0  0  0  0  0
   -5.0493    1.8882    2.2594 C   0  0  0  0  0  0
   -5.1443    1.9655    0.8590 C   0  0  0  0  0  0
   -5.6487    2.8131    3.1098 C   0  0  0  0  0  0
   -5.5715    2.7591    4.4528 N   0  5  0  0  0  0
   -4.8592    1.7265    4.9314 C   0  0  0  0  0  0
   -4.2334    0.7690    4.2172 N   0  0  0  0  0  0
   -6.3900    3.8870    2.5575 N   0  0  0  0  0  0
   -7.4938    4.6165    3.0273 C   0  0  0  0  0  0
   -8.4249    4.0084    3.8694 C   0  0  0  0  0  0
   -9.5204    4.7340    4.3373 C   0  0  0  0  0  0
   -9.6848    6.0677    3.9632 C   0  0  0  0  0  0
   -8.7538    6.6757    3.1211 C   0  0  0  0  0  0
   -7.6583    5.9501    2.6531 C   0  0  0  0  0  0
  -10.7337    6.7775    4.4033 F   0  0  0  0  0  0
  -10.6678    3.9770    5.3737 Cl  0  0  0  0  0  0
   -3.1867   -0.9767   -0.0835 O   0  0  0  0  0  0
   -3.5955   -2.3251    0.1186 C   0  0  1  0  0  0
   -4.3945   -2.2597    0.8718 H   0  0  0  0  0  0
   -4.0081   -2.9421   -1.1952 C   0  0  0  0  0  0
   -2.6707   -3.2981   -1.8131 C   0  0  0  0  0  0
   -1.7750   -3.5832   -0.7301 O   0  0  0  0  0  0
   -2.3869   -3.1553    0.4989 C   0  0  0  0  0  0
   -7.4480    0.6240   -5.2482 H   0  0  0  0  0  0
   -6.7353    0.1673   -6.8325 H   0  0  0  0  0  0
   -8.4312    0.7530   -6.7459 H   0  0  0  0  0  0
   -6.5619    3.6042   -8.0537 H   0  0  0  0  0  0
   -7.9206    2.4705   -8.3628 H   0  0  0  0  0  0
   -6.2246    1.8848   -8.4493 H   0  0  0  0  0  0
   -5.0251    1.5228   -6.0925 H   0  0  0  0  0  0
   -5.1544    3.2973   -6.3395 H   0  0  0  0  0  0
   -6.3257    3.4789   -4.0739 H   0  0  0  0  0  0
   -4.5866    0.9252   -3.8731 H   0  0  0  0  0  0
   -3.2020   -0.8334    2.4916 H   0  0  0  0  0  0
   -5.6596    2.7093    0.4332 H   0  0  0  0  0  0
   -4.8191    1.7117    5.9305 H   0  0  0  0  0  0
   -8.2932    2.9683    4.1599 H   0  0  0  0  0  0
   -8.8801    7.7147    2.8314 H   0  0  0  0  0  0
   -6.9384    6.4341    1.9980 H   0  0  0  0  0  0
   -4.6415   -3.8210   -1.0047 H   0  0  0  0  0  0
   -4.5720   -2.2049   -1.7855 H   0  0  0  0  0  0
   -2.7895   -4.1778   -2.4628 H   0  0  0  0  0  0
   -2.3044   -2.4491   -2.4089 H   0  0  0  0  0  0
   -1.6910   -2.5408    1.0889 H   0  0  0  0  0  0
   -2.7097   -4.0203    1.0969 H   0  0  0  0  0  0
   -6.0133    3.1884   -0.5592 H   0  0  0  0  0  0
   -7.6640    2.9126   -6.0113 H   0  0  0  0  0  0
  1  2  1  0  0  0
  1 36  1  0  0  0
  1 37  1  0  0  0
  1 38  1  0  0  0
  2  3  1  0  0  0
  2  4  1  0  0  0
  2 59  1  0  0  0
  3 39  1  0  0  0
  3 40  1  0  0  0
  3 41  1  0  0  0
  4  5  1  0  0  0
  4 42  1  0  0  0
  4 43  1  0  0  0
  5  6  2  0  0  0
  5 44  1  0  0  0
  6  7  1  0  0  0
  6 45  1  0  0  0
  7  8  2  0  0  0
  7  9  1  0  0  0
  8 58  1  0  0  0
  9 10  1  0  0  0
 10 15  2  0  0  0
 10 11  1  0  0  0
 11 29  1  0  0  0
 11 12  2  0  0  0
 12 46  1  0  0  0
 12 13  1  0  0  0
 13 14  2  0  0  0
 13 19  1  0  0  0
 14 16  1  0  0  0
 14 15  1  0  0  0
 15 47  1  0  0  0
 16 20  2  0  0  0
 16 17  1  0  0  0
 17 18  1  0  0  0
 18 19  2  0  0  0
 18 48  1  0  0  0
 20 21  1  0  0  0
 21 26  2  0  0  0
 21 22  1  0  0  0
 22 23  2  0  0  0
 22 49  1  0  0  0
 23 24  1  0  0  0
 23 28  1  0  0  0
 24 25  2  0  0  0
 24 27  1  0  0  0
 25 26  1  0  0  0
 25 50  1  0  0  0
 26 51  1  0  0  0
 29 30  1  0  0  0
 30 31  1  0  0  0
 30 35  1  0  0  0
 30 32  1  0  0  0
 32 33  1  0  0  0
 32 52  1  0  0  0
 32 53  1  0  0  0
 33 34  1  0  0  0
 33 54  1  0  0  0
 33 55  1  0  0  0
 34 35  1  0  0  0
 35 56  1  0  0  0
 35 57  1  0  0  0
M  CHG  4   2   1   8   1   9  -1  17  -1
M  END
> <s_m_source_file>
/Users/andrea/Development/mcce-charges/epik_inhibitors/output/Afatinib/Afatinib-input.mol2

> <i_m_source_file_index>
1

> <r_epik_Ionization_Penalty>
 10.9049

> <r_epik_Ionization_Penalty_Charging>
  2.1267

> <r_epik_Ionization_Penalty_Neutral>
  8.7782

> <r_epik_State_Penalty>
 12.7157

> <i_epik_Tot_Q>
0

> <s_epik_Chemistry_Notes>
This compound has an imine and may undergo hydrolysis.

$$$$
(~{E})-~{N}-[4-(3-chloro-4-fluoro-anilino)-7-[(3~{S})-tetrahydrofuran-3-yl]oxy-quinazolin-6-yl]-4-(dimethylamino)but-2-enamide
                    3D
 Structure written by MMmdl.
 59 62  0  0  1  0            999 V2000
   -7.4216    0.8592   -6.3224 C   0  0  0  0  0  0
   -6.9566    2.2331   -6.5093 N   0  3  0  0  0  0
   -6.9132    2.5690   -7.9319 C   0  0  0  0  0  0
   -5.6420    2.4135   -5.9023 C   0  0  0  0  0  0
   -5.7426    2.6126   -4.4193 C   0  0  0  0  0  0
   -5.1638    1.7956   -3.5279 C   0  0  0  0  0  0
   -5.2952    2.0565   -2.0634 C   0  0  0  0  0  0
   -5.9302    3.0162   -1.6425 O   0  3  0  0  0  0
   -4.6215    1.0925   -1.3249 N   0  5  0  0  0  0
   -4.5216    1.0074    0.0654 C   0  0  0  0  0  0
   -3.8074   -0.0228    0.6671 C   0  0  0  0  0  0
   -3.7161   -0.0919    2.0604 C   0  0  0  0  0  0
   -4.3304    0.8528    2.8788 C   0  0  0  0  0  0
   -5.0493    1.8882    2.2594 C   0  0  0  0  0  0
   -5.1443    1.9655    0.8590 C   0  0  0  0  0  0
   -5.6487    2.8131    3.1098 C   0  0  0  0  0  0
   -5.5715    2.7591    4.4528 N   0  5  0  0  0  0
   -4.8592    1.7265    4.9314 C   0  0  0  0  0  0
   -4.2334    0.7690    4.2172 N   0  0  0  0  0  0
   -6.3900    3.8870    2.5575 N   0  0  0  0  0  0
   -6.2774    4.5932    1.3493 C   0  0  0  0  0  0
   -5.0304    4.7437    0.7426 C   0  0  0  0  0  0
   -4.9192    5.4439   -0.4586 C   0  0  0  0  0  0
   -6.0550    5.9936   -1.0532 C   0  0  0  0  0  0
   -7.3019    5.8432   -0.4465 C   0  0  0  0  0  0
   -7.4131    5.1430    0.7548 C   0  0  0  0  0  0
   -5.9637    6.6709   -2.2067 F   0  0  0  0  0  0
   -3.3769    5.6289   -1.2008 Cl  0  0  0  0  0  0
   -3.1867   -0.9767   -0.0835 O   0  0  0  0  0  0
   -3.5955   -2.3251    0.1186 C   0  0  1  0  0  0
   -4.3945   -2.2597    0.8718 H   0  0  0  0  0  0
   -4.0081   -2.9421   -1.1952 C   0  0  0  0  0  0
   -2.6707   -3.2981   -1.8131 C   0  0  0  0  0  0
   -1.7750   -3.5832   -0.7301 O   0  0  0  0  0  0
   -2.3869   -3.1553    0.4989 C   0  0  0  0  0  0
   -7.4480    0.6240   -5.2482 H   0  0  0  0  0  0
   -6.7353    0.1673   -6.8325 H   0  0  0  0  0  0
   -8.4312    0.7530   -6.7459 H   0  0  0  0  0  0
   -6.5619    3.6042   -8.0537 H   0  0  0  0  0  0
   -7.9206    2.4705   -8.3628 H   0  0  0  0  0  0
   -6.2246    1.8848   -8.4493 H   0  0  0  0  0  0
   -5.0251    1.5228   -6.0925 H   0  0  0  0  0  0
   -5.1544    3.2973   -6.3395 H   0  0  0  0  0  0
   -6.3257    3.4789   -4.0739 H   0  0  0  0  0  0
   -4.5866    0.9252   -3.8731 H   0  0  0  0  0  0
   -3.2020   -0.8334    2.4916 H   0  0  0  0  0  0
   -5.6596    2.7093    0.4332 H   0  0  0  0  0  0
   -4.8191    1.7117    5.9305 H   0  0  0  0  0  0
   -4.1467    4.3130    1.2085 H   0  0  0  0  0  0
   -8.1868    6.2690   -0.9102 H   0  0  0  0  0  0
   -8.3900    5.0311    1.2185 H   0  0  0  0  0  0
   -4.6415   -3.8210   -1.0047 H   0  0  0  0  0  0
   -4.5720   -2.2049   -1.7855 H   0  0  0  0  0  0
   -2.7895   -4.1778   -2.4628 H   0  0  0  0  0  0
   -2.3044   -2.4491   -2.4089 H   0  0  0  0  0  0
   -1.6910   -2.5408    1.0889 H   0  0  0  0  0  0
   -2.7097   -4.0203    1.0969 H   0  0  0  0  0  0
   -6.0133    3.1884   -0.5592 H   0  0  0  0  0  0
   -7.6640    2.9126   -6.0113 H   0  0  0  0  0  0
  1  2  1  0  0  0
  1 36  1  0  0  0
  1 37  1  0  0  0
  1 38  1  0  0  0
  2  3  1  0  0  0
  2  4  1  0  0  0
  2 59  1  0  0  0
  3 39  1  0  0  0
  3 40  1  0  0  0
  3 41  1  0  0  0
  4  5  1  0  0  0
  4 42  1  0  0  0
  4 43  1  0  0  0
  5  6  2  0  0  0
  5 44  1  0  0  0
  6  7  1  0  0  0
  6 45  1  0  0  0
  7  8  2  0  0  0
  7  9  1  0  0  0
  8 58  1  0  0  0
  9 10  1  0  0  0
 10 15  2  0  0  0
 10 11  1  0  0  0
 11 29  1  0  0  0
 11 12  2  0  0  0
 12 46  1  0  0  0
 12 13  1  0  0  0
 13 14  2  0  0  0
 13 19  1  0  0  0
 14 16  1  0  0  0
 14 15  1  0  0  0
 15 47  1  0  0  0
 16 20  2  0  0  0
 16 17  1  0  0  0
 17 18  1  0  0  0
 18 19  2  0  0  0
 18 48  1  0  0  0
 20 21  1  0  0  0
 21 26  2  0  0  0
 21 22  1  0  0  0
 22 23  2  0  0  0
 22 49  1  0  0  0
 23 24  1  0  0  0
 23 28  1  0  0  0
 24 25  2  0  0  0
 24 27  1  0  0  0
 25 26  1  0  0  0
 25 50  1  0  0  0
 26 51  1  0  0  0
 29 30  1  0  0  0
 30 31  1  0  0  0
 30 35  1  0  0  0
 30 32  1  0  0  0
 32 33  1  0  0  0
 32 52  1  0  0  0
 32 53  1  0  0  0
 33 34  1  0  0  0
 33 54  1  0  0  0
 33 55  1  0  0  0
 34 35  1  0  0  0
 35 56  1  0  0  0
 35 57  1  0  0  0
M  CHG  4   2   1   8   1   9  -1  17  -1
M  END
> <s_m_source_file>
/Users/andrea/Development/mcce-charges/epik_inhibitors/output/Afatinib/Afatinib-input.mol2

> <i_m_source_file_index>
1

> <r_epik_Ionization_Penalty>
 10.9049

> <r_epik_Ionization_Penalty_Charging>
  2.1267

> <r_epik_Ionization_Penalty_Neutral>
  8.7782

> <r_epik_State_Penalty>
 12.7157

> <i_epik_Tot_Q>
0

> <s_epik_Chemistry_Notes>
This compound has an imine and may undergo hydrolysis.

$$$$
