@<TRIPOS>MOLECULE
(~{E})-~{N}-[4-(3-chloro-4-fluoro-anilino)-7-[(3~{S})-tetrahydrofuran-3-yl]oxy-quinazolin-6-yl]-4-(dimethylamino)but-2-enamide
60   63    1
SMALL
USER_CHARGES


@<TRIPOS>ATOM
      1 C1         -7.4202    0.8609   -6.3224 C.3       1 AFA         0.1417 
      2 N1         -6.9556    2.2350   -6.5089 N.4       1 AFA        -0.7103 
      3 C2         -6.9127    2.5714   -7.9314 C.3       1 AFA         0.1417 
      4 C3         -5.6408    2.4154   -5.9022 C.3       1 AFA         0.1681 
      5 C4         -5.7413    2.6139   -4.4191 C.2       1 AFA        -0.0516 
      6 C5         -5.1623    1.7969   -3.5279 C.2       1 AFA        -0.2600 
      7 C6         -5.2942    2.0572   -2.0634 C.2       1 AFA         0.6718 
      8 O1         -5.9298    3.0164   -1.6424 O.2       1 AFA        -0.6061 
      9 N2         -4.6206    1.0931   -1.3249 N.2       1 AFA        -0.4600 
     10 C7         -4.5211    1.0077    0.0654 C.ar      1 AFA         0.0576 
     11 C8         -3.8067   -0.0223    0.6671 C.ar      1 AFA         0.0904 
     12 C9         -3.7167   -0.0923    2.0604 C.ar      1 AFA        -0.1976 
     13 C10        -4.3304    0.8528    2.8788 C.ar      1 AFA         0.4272 
     14 C11        -5.0493    1.8882    2.2594 C.ar      1 AFA        -0.2754 
     15 C12        -5.1444    1.9655    0.8590 C.ar      1 AFA        -0.1321 
     16 C13        -5.6484    2.8133    3.1098 C.ar      1 AFA         0.7118 
     17 N3         -5.5709    2.7595    4.4528 N.ar      1 AFA        -0.7569 
     18 C14        -4.8583    1.7271    4.9314 C.ar      1 AFA         0.6633 
     19 N4         -4.2328    0.7694    4.2172 N.ar      1 AFA        -0.7068 
     20 N5         -6.3900    3.8870    2.5575 N.pl3     1 AFA        -0.7606 
     21 C15        -7.4938    4.6164    3.0274 C.ar      1 AFA         0.1696 
     22 C16        -8.4247    4.0083    3.8697 C.ar      1 AFA        -0.1538 
     23 C17        -9.5202    4.7338    4.3377 C.ar      1 AFA         0.0049 
     24 C18        -9.6849    6.0674    3.9635 C.ar      1 AFA         0.1073 
     25 C19        -8.7541    6.6754    3.1212 C.ar      1 AFA        -0.1339 
     26 C20        -7.6586    5.9499    2.6531 C.ar      1 AFA        -0.1188 
     27 F1        -10.7337    6.7771    4.4037 F         1 AFA        -0.1280 
     28 Cl1       -10.6673    3.9767    5.3744 Cl        1 AFA        -0.0682 
     29 O2         -3.1859   -0.9762   -0.0835 O.3       1 AFA        -0.3518 
     30 C21        -3.5949   -2.3246    0.1184 C.3       1 AFA         0.1117 
     31 H1         -4.3940   -2.2591    0.8715 H         1 AFA         0.0780 
     32 C22        -4.0074   -2.9414   -1.1956 C.3       1 AFA        -0.1231 
     33 C23        -2.6699   -3.2975   -1.8133 C.3       1 AFA         0.1280 
     34 O3         -1.7744   -3.5828   -0.7302 O.3       1 AFA        -0.4194 
     35 C24        -2.3865   -3.1549    0.4988 C.3       1 AFA         0.1092 
     36 H2         -7.4462    0.6253   -5.2482 H         1 AFA         0.0365 
     37 H3         -6.7339    0.1693   -6.8330 H         1 AFA         0.0365 
     38 H4         -8.4299    0.7546   -6.7457 H         1 AFA         0.0365 
     39 H5         -6.5616    3.6068   -8.0529 H         1 AFA         0.0365 
     40 H6         -7.9201    2.4729   -8.3620 H         1 AFA         0.0365 
     41 H7         -6.2241    1.8876   -8.4493 H         1 AFA         0.0365 
     42 H8         -5.0237    1.5249   -6.0928 H         1 AFA         0.0456 
     43 H9         -5.1535    3.2995   -6.3391 H         1 AFA         0.0456 
     44 H10        -6.3246    3.4800   -4.0734 H         1 AFA         0.1650 
     45 H11        -4.5847    0.9269   -3.8735 H         1 AFA         0.1351 
     46 H13        -3.1533   -0.9064    2.5138 H         1 AFA         0.1630 
     47 H14        -5.7007    2.7665    0.3765 H         1 AFA         0.1803 
     48 H15        -4.7758    1.6541    6.0091 H         1 AFA         0.0550 
     49 H16        -6.1189    4.2930    1.5718 H         1 AFA         0.4610 
     50 H17        -8.2928    2.9682    4.1603 H         1 AFA         0.1540 
     51 H18        -8.8806    7.7144    2.8315 H         1 AFA         0.1552 
     52 H19        -6.9388    6.4340    1.9978 H         1 AFA         0.1586 
     53 H20        -4.6409   -3.8203   -1.0052 H         1 AFA         0.0640 
     54 H21        -4.5711   -2.2040   -1.7859 H         1 AFA         0.0640 
     55 H22        -2.7887   -4.1771   -2.4631 H         1 AFA         0.0523 
     56 H23        -2.3034   -2.4485   -2.4090 H         1 AFA         0.0523 
     57 H24        -1.6906   -2.5406    1.0890 H         1 AFA         0.0644 
     58 H25        -2.7094   -4.0199    1.0966 H         1 AFA         0.0644 
     59 H59        -6.0133    3.1882   -0.5591 H         1 AFA         0.0000 
     60 H60        -7.6630    2.9141   -6.0104 H         1 AFA         0.0000 
@<TRIPOS>BOND
     1    1    2 1    
     2    1   36 1    
     3    1   37 1    
     4    1   38 1    
     5    2    3 1    
     6    2    4 1    
     7    2   60 1    
     8    3   39 1    
     9    3   40 1    
    10    3   41 1    
    11    4    5 1    
    12    4   42 1    
    13    4   43 1    
    14    5    6 2    
    15    5   44 1    
    16    6    7 1    
    17    6   45 1    
    18    7    8 2    
    19    7    9 1    
    20    8   59 1    
    21    9   10 1    
    22   10   15 ar   
    23   10   11 ar   
    24   11   12 ar   
    25   11   29 1    
    26   12   13 ar   
    27   12   46 1    
    28   13   19 ar   
    29   13   14 ar   
    30   14   15 ar   
    31   14   16 ar   
    32   15   47 1    
    33   16   17 ar   
    34   16   20 1    
    35   17   18 ar   
    36   18   19 ar   
    37   18   48 1    
    38   20   21 1    
    39   20   49 1    
    40   21   26 ar   
    41   21   22 ar   
    42   22   23 ar   
    43   22   50 1    
    44   23   24 ar   
    45   23   28 1    
    46   24   25 ar   
    47   24   27 1    
    48   25   26 ar   
    49   25   51 1    
    50   26   52 1    
    51   29   30 1    
    52   30   31 1    
    53   30   35 1    
    54   30   32 1    
    55   32   33 1    
    56   32   53 1    
    57   32   54 1    
    58   33   34 1    
    59   33   55 1    
    60   33   56 1    
    61   34   35 1    
    62   35   57 1    
    63   35   58 1    
@<TRIPOS>SUBSTRUCTURE
     1 AFA         1 GROUP             0       ****    0 ROOT    
@<TRIPOS>MOLECULE
(~{E})-~{N}-[4-(3-chloro-4-fluoro-anilino)-7-[(3~{S})-tetrahydrofuran-3-yl]oxy-quinazolin-6-yl]-4-(dimethylamino)but-2-enamide
60   63    1
SMALL
USER_CHARGES


@<TRIPOS>ATOM
      1 C1         -7.4202    0.8609   -6.3224 C.3       1 AFA         0.1417 
      2 N1         -6.9556    2.2350   -6.5089 N.4       1 AFA        -0.7103 
      3 C2         -6.9127    2.5714   -7.9314 C.3       1 AFA         0.1417 
      4 C3         -5.6408    2.4154   -5.9022 C.3       1 AFA         0.1681 
      5 C4         -5.7413    2.6139   -4.4191 C.2       1 AFA        -0.0516 
      6 C5         -5.1623    1.7969   -3.5279 C.2       1 AFA        -0.2600 
      7 C6         -5.2942    2.0572   -2.0634 C.2       1 AFA         0.6718 
      8 O1         -5.9298    3.0164   -1.6424 O.2       1 AFA        -0.6061 
      9 N2         -4.6206    1.0931   -1.3249 N.am      1 AFA        -0.4600 
     10 C7         -4.5211    1.0077    0.0654 C.ar      1 AFA         0.0576 
     11 C8         -3.8067   -0.0223    0.6671 C.ar      1 AFA         0.0904 
     12 C9         -3.7167   -0.0923    2.0604 C.ar      1 AFA        -0.1976 
     13 C10        -4.3304    0.8528    2.8788 C.ar      1 AFA         0.4272 
     14 C11        -5.0493    1.8882    2.2594 C.ar      1 AFA        -0.2754 
     15 C12        -5.1444    1.9655    0.8590 C.ar      1 AFA        -0.1321 
     16 C13        -5.6484    2.8133    3.1098 C.ar      1 AFA         0.7118 
     17 N3         -5.5709    2.7595    4.4528 N.ar      1 AFA        -0.7569 
     18 C14        -4.8583    1.7271    4.9314 C.ar      1 AFA         0.6633 
     19 N4         -4.2328    0.7694    4.2172 N.ar      1 AFA        -0.7068 
     20 N5         -6.3900    3.8870    2.5575 N.pl3     1 AFA        -0.7606 
     21 C15        -7.4938    4.6164    3.0274 C.ar      1 AFA         0.1696 
     22 C16        -8.4247    4.0083    3.8697 C.ar      1 AFA        -0.1538 
     23 C17        -9.5202    4.7338    4.3377 C.ar      1 AFA         0.0049 
     24 C18        -9.6849    6.0674    3.9635 C.ar      1 AFA         0.1073 
     25 C19        -8.7541    6.6754    3.1212 C.ar      1 AFA        -0.1339 
     26 C20        -7.6586    5.9499    2.6531 C.ar      1 AFA        -0.1188 
     27 F1        -10.7337    6.7771    4.4037 F         1 AFA        -0.1280 
     28 Cl1       -10.6673    3.9767    5.3744 Cl        1 AFA        -0.0682 
     29 O2         -3.1859   -0.9762   -0.0835 O.3       1 AFA        -0.3518 
     30 C21        -3.5949   -2.3246    0.1184 C.3       1 AFA         0.1117 
     31 H1         -4.3940   -2.2591    0.8715 H         1 AFA         0.0780 
     32 C22        -4.0074   -2.9414   -1.1956 C.3       1 AFA        -0.1231 
     33 C23        -2.6699   -3.2975   -1.8133 C.3       1 AFA         0.1280 
     34 O3         -1.7744   -3.5828   -0.7302 O.3       1 AFA        -0.4194 
     35 C24        -2.3865   -3.1549    0.4988 C.3       1 AFA         0.1092 
     36 H2         -7.4462    0.6253   -5.2482 H         1 AFA         0.0365 
     37 H3         -6.7339    0.1693   -6.8330 H         1 AFA         0.0365 
     38 H4         -8.4299    0.7546   -6.7457 H         1 AFA         0.0365 
     39 H5         -6.5616    3.6068   -8.0529 H         1 AFA         0.0365 
     40 H6         -7.9201    2.4729   -8.3620 H         1 AFA         0.0365 
     41 H7         -6.2241    1.8876   -8.4493 H         1 AFA         0.0365 
     42 H8         -5.0237    1.5249   -6.0928 H         1 AFA         0.0456 
     43 H9         -5.1535    3.2995   -6.3391 H         1 AFA         0.0456 
     44 H10        -6.3246    3.4800   -4.0734 H         1 AFA         0.1650 
     45 H11        -4.5847    0.9269   -3.8735 H         1 AFA         0.1351 
     46 H12        -4.0868    0.2801   -1.8388 H         1 AFA         0.3333 
     47 H13        -3.1533   -0.9064    2.5138 H         1 AFA         0.1630 
     48 H14        -5.7007    2.7665    0.3765 H         1 AFA         0.1803 
     49 H15        -4.7758    1.6541    6.0091 H         1 AFA         0.0550 
     50 H16        -6.1189    4.2930    1.5718 H         1 AFA         0.4610 
     51 H17        -8.2928    2.9682    4.1603 H         1 AFA         0.1540 
     52 H18        -8.8806    7.7144    2.8315 H         1 AFA         0.1552 
     53 H19        -6.9388    6.4340    1.9978 H         1 AFA         0.1586 
     54 H20        -4.6409   -3.8203   -1.0052 H         1 AFA         0.0640 
     55 H21        -4.5711   -2.2040   -1.7859 H         1 AFA         0.0640 
     56 H22        -2.7887   -4.1771   -2.4631 H         1 AFA         0.0523 
     57 H23        -2.3034   -2.4485   -2.4090 H         1 AFA         0.0523 
     58 H24        -1.6906   -2.5406    1.0890 H         1 AFA         0.0644 
     59 H25        -2.7094   -4.0199    1.0966 H         1 AFA         0.0644 
     60 H60        -7.6630    2.9141   -6.0104 H         1 AFA         0.0000 
@<TRIPOS>BOND
     1    1    2 1    
     2    1   36 1    
     3    1   37 1    
     4    1   38 1    
     5    2    3 1    
     6    2    4 1    
     7    2   60 1    
     8    3   39 1    
     9    3   40 1    
    10    3   41 1    
    11    4    5 1    
    12    4   42 1    
    13    4   43 1    
    14    5    6 2    
    15    5   44 1    
    16    6    7 1    
    17    6   45 1    
    18    7    8 2    
    19    7    9 am   BACKBONE|DICT|INTERRES
    20    9   10 1    
    21    9   46 1    
    22   10   15 ar   
    23   10   11 ar   
    24   11   12 ar   
    25   11   29 1    
    26   12   13 ar   
    27   12   47 1    
    28   13   19 ar   
    29   13   14 ar   
    30   14   15 ar   
    31   14   16 ar   
    32   15   48 1    
    33   16   17 ar   
    34   16   20 1    
    35   17   18 ar   
    36   18   19 ar   
    37   18   49 1    
    38   20   21 1    
    39   20   50 1    
    40   21   26 ar   
    41   21   22 ar   
    42   22   23 ar   
    43   22   51 1    
    44   23   24 ar   
    45   23   28 1    
    46   24   25 ar   
    47   24   27 1    
    48   25   26 ar   
    49   25   52 1    
    50   26   53 1    
    51   29   30 1    
    52   30   31 1    
    53   30   35 1    
    54   30   32 1    
    55   32   33 1    
    56   32   54 1    
    57   32   55 1    
    58   33   34 1    
    59   33   56 1    
    60   33   57 1    
    61   34   35 1    
    62   35   58 1    
    63   35   59 1    
@<TRIPOS>SUBSTRUCTURE
     1 AFA         1 GROUP             0       ****    0 ROOT    
@<TRIPOS>MOLECULE
(~{E})-~{N}-[4-(3-chloro-4-fluoro-anilino)-7-[(3~{S})-tetrahydrofuran-3-yl]oxy-quinazolin-6-yl]-4-(dimethylamino)but-2-enamide
59   62    1
SMALL
USER_CHARGES


@<TRIPOS>ATOM
      1 C1         -7.4202    0.8609   -6.3224 C.3       1 AFA         0.1417 
      2 N1         -6.9556    2.2350   -6.5089 N.3       1 AFA        -0.7103 
      3 C2         -6.9127    2.5714   -7.9314 C.3       1 AFA         0.1417 
      4 C3         -5.6408    2.4154   -5.9022 C.3       1 AFA         0.1681 
      5 C4         -5.7413    2.6139   -4.4191 C.2       1 AFA        -0.0516 
      6 C5         -5.1623    1.7969   -3.5279 C.2       1 AFA        -0.2600 
      7 C6         -5.2942    2.0572   -2.0634 C.2       1 AFA         0.6718 
      8 O1         -5.9298    3.0164   -1.6424 O.2       1 AFA        -0.6061 
      9 N2         -4.6206    1.0931   -1.3249 N.am      1 AFA        -0.4600 
     10 C7         -4.5211    1.0077    0.0654 C.ar      1 AFA         0.0576 
     11 C8         -3.8067   -0.0223    0.6671 C.ar      1 AFA         0.0904 
     12 C9         -3.7167   -0.0923    2.0604 C.ar      1 AFA        -0.1976 
     13 C10        -4.3304    0.8528    2.8788 C.ar      1 AFA         0.4272 
     14 C11        -5.0493    1.8882    2.2594 C.ar      1 AFA        -0.2754 
     15 C12        -5.1444    1.9655    0.8590 C.ar      1 AFA        -0.1321 
     16 C13        -5.6484    2.8133    3.1098 C.ar      1 AFA         0.7118 
     17 N3         -5.5709    2.7595    4.4528 N.ar      1 AFA        -0.7569 
     18 C14        -4.8583    1.7271    4.9314 C.ar      1 AFA         0.6633 
     19 N4         -4.2328    0.7694    4.2172 N.ar      1 AFA        -0.7068 
     20 N5         -6.3900    3.8870    2.5575 N.pl3     1 AFA        -0.7606 
     21 C15        -7.4938    4.6164    3.0274 C.ar      1 AFA         0.1696 
     22 C16        -8.4247    4.0083    3.8697 C.ar      1 AFA        -0.1538 
     23 C17        -9.5202    4.7338    4.3377 C.ar      1 AFA         0.0049 
     24 C18        -9.6849    6.0674    3.9635 C.ar      1 AFA         0.1073 
     25 C19        -8.7541    6.6754    3.1212 C.ar      1 AFA        -0.1339 
     26 C20        -7.6586    5.9499    2.6531 C.ar      1 AFA        -0.1188 
     27 F1        -10.7337    6.7771    4.4037 F         1 AFA        -0.1280 
     28 Cl1       -10.6673    3.9767    5.3744 Cl        1 AFA        -0.0682 
     29 O2         -3.1859   -0.9762   -0.0835 O.3       1 AFA        -0.3518 
     30 C21        -3.5949   -2.3246    0.1184 C.3       1 AFA         0.1117 
     31 H1         -4.3940   -2.2591    0.8715 H         1 AFA         0.0780 
     32 C22        -4.0074   -2.9414   -1.1956 C.3       1 AFA        -0.1231 
     33 C23        -2.6699   -3.2975   -1.8133 C.3       1 AFA         0.1280 
     34 O3         -1.7744   -3.5828   -0.7302 O.3       1 AFA        -0.4194 
     35 C24        -2.3865   -3.1549    0.4988 C.3       1 AFA         0.1092 
     36 H2         -7.4462    0.6253   -5.2482 H         1 AFA         0.0365 
     37 H3         -6.7339    0.1693   -6.8330 H         1 AFA         0.0365 
     38 H4         -8.4299    0.7546   -6.7457 H         1 AFA         0.0365 
     39 H5         -6.5616    3.6068   -8.0529 H         1 AFA         0.0365 
     40 H6         -7.9201    2.4729   -8.3620 H         1 AFA         0.0365 
     41 H7         -6.2241    1.8876   -8.4493 H         1 AFA         0.0365 
     42 H8         -5.0237    1.5249   -6.0928 H         1 AFA         0.0456 
     43 H9         -5.1535    3.2995   -6.3391 H         1 AFA         0.0456 
     44 H10        -6.3246    3.4800   -4.0734 H         1 AFA         0.1650 
     45 H11        -4.5847    0.9269   -3.8735 H         1 AFA         0.1351 
     46 H12        -4.0868    0.2801   -1.8388 H         1 AFA         0.3333 
     47 H13        -3.1533   -0.9064    2.5138 H         1 AFA         0.1630 
     48 H14        -5.7007    2.7665    0.3765 H         1 AFA         0.1803 
     49 H15        -4.7758    1.6541    6.0091 H         1 AFA         0.0550 
     50 H16        -6.1189    4.2930    1.5718 H         1 AFA         0.4610 
     51 H17        -8.2928    2.9682    4.1603 H         1 AFA         0.1540 
     52 H18        -8.8806    7.7144    2.8315 H         1 AFA         0.1552 
     53 H19        -6.9388    6.4340    1.9978 H         1 AFA         0.1586 
     54 H20        -4.6409   -3.8203   -1.0052 H         1 AFA         0.0640 
     55 H21        -4.5711   -2.2040   -1.7859 H         1 AFA         0.0640 
     56 H22        -2.7887   -4.1771   -2.4631 H         1 AFA         0.0523 
     57 H23        -2.3034   -2.4485   -2.4090 H         1 AFA         0.0523 
     58 H24        -1.6906   -2.5406    1.0890 H         1 AFA         0.0644 
     59 H25        -2.7094   -4.0199    1.0966 H         1 AFA         0.0644 
@<TRIPOS>BOND
     1    1    2 1    
     2    1   36 1    
     3    1   37 1    
     4    1   38 1    
     5    2    3 1    
     6    2    4 1    
     7    3   39 1    
     8    3   40 1    
     9    3   41 1    
    10    4    5 1    
    11    4   42 1    
    12    4   43 1    
    13    5    6 2    
    14    5   44 1    
    15    6    7 1    
    16    6   45 1    
    17    7    8 2    
    18    7    9 am   BACKBONE|DICT|INTERRES
    19    9   10 1    
    20    9   46 1    
    21   10   15 ar   
    22   10   11 ar   
    23   11   12 ar   
    24   11   29 1    
    25   12   13 ar   
    26   12   47 1    
    27   13   19 ar   
    28   13   14 ar   
    29   14   15 ar   
    30   14   16 ar   
    31   15   48 1    
    32   16   17 ar   
    33   16   20 1    
    34   17   18 ar   
    35   18   19 ar   
    36   18   49 1    
    37   20   21 1    
    38   20   50 1    
    39   21   26 ar   
    40   21   22 ar   
    41   22   23 ar   
    42   22   51 1    
    43   23   24 ar   
    44   23   28 1    
    45   24   25 ar   
    46   24   27 1    
    47   25   26 ar   
    48   25   52 1    
    49   26   53 1    
    50   29   30 1    
    51   30   31 1    
    52   30   35 1    
    53   30   32 1    
    54   32   33 1    
    55   32   54 1    
    56   32   55 1    
    57   33   34 1    
    58   33   56 1    
    59   33   57 1    
    60   34   35 1    
    61   35   58 1    
    62   35   59 1    
@<TRIPOS>SUBSTRUCTURE
     1 AFA         1 GROUP             0       ****    0 ROOT    
@<TRIPOS>MOLECULE
(~{E})-~{N}-[4-(3-chloro-4-fluoro-anilino)-7-[(3~{S})-tetrahydrofuran-3-yl]oxy-quinazolin-6-yl]-4-(dimethylamino)but-2-enamide
59   62    1
SMALL
USER_CHARGES


@<TRIPOS>ATOM
      1 C1         -7.4202    0.8609   -6.3224 C.3       1 AFA         0.1417 
      2 N1         -6.9556    2.2350   -6.5089 N.3       1 AFA        -0.7103 
      3 C2         -6.9127    2.5714   -7.9314 C.3       1 AFA         0.1417 
      4 C3         -5.6408    2.4154   -5.9022 C.3       1 AFA         0.1681 
      5 C4         -5.7413    2.6139   -4.4191 C.2       1 AFA        -0.0516 
      6 C5         -5.1623    1.7969   -3.5279 C.2       1 AFA        -0.2600 
      7 C6         -5.2942    2.0572   -2.0634 C.2       1 AFA         0.6718 
      8 O1         -5.9298    3.0164   -1.6424 O.2       1 AFA        -0.6061 
      9 N2         -4.6206    1.0931   -1.3249 N.2       1 AFA        -0.4600 
     10 C7         -4.5211    1.0077    0.0654 C.ar      1 AFA         0.0576 
     11 C8         -3.8067   -0.0223    0.6671 C.ar      1 AFA         0.0904 
     12 C9         -3.7167   -0.0923    2.0604 C.ar      1 AFA        -0.1976 
     13 C10        -4.3304    0.8528    2.8788 C.ar      1 AFA         0.4272 
     14 C11        -5.0493    1.8882    2.2594 C.ar      1 AFA        -0.2754 
     15 C12        -5.1444    1.9655    0.8590 C.ar      1 AFA        -0.1321 
     16 C13        -5.6484    2.8133    3.1098 C.ar      1 AFA         0.7118 
     17 N3         -5.5709    2.7595    4.4528 N.ar      1 AFA        -0.7569 
     18 C14        -4.8583    1.7271    4.9314 C.ar      1 AFA         0.6633 
     19 N4         -4.2328    0.7694    4.2172 N.ar      1 AFA        -0.7068 
     20 N5         -6.3900    3.8870    2.5575 N.pl3     1 AFA        -0.7606 
     21 C15        -7.4938    4.6164    3.0274 C.ar      1 AFA         0.1696 
     22 C16        -8.4247    4.0083    3.8697 C.ar      1 AFA        -0.1538 
     23 C17        -9.5202    4.7338    4.3377 C.ar      1 AFA         0.0049 
     24 C18        -9.6849    6.0674    3.9635 C.ar      1 AFA         0.1073 
     25 C19        -8.7541    6.6754    3.1212 C.ar      1 AFA        -0.1339 
     26 C20        -7.6586    5.9499    2.6531 C.ar      1 AFA        -0.1188 
     27 F1        -10.7337    6.7771    4.4037 F         1 AFA        -0.1280 
     28 Cl1       -10.6673    3.9767    5.3744 Cl        1 AFA        -0.0682 
     29 O2         -3.1859   -0.9762   -0.0835 O.3       1 AFA        -0.3518 
     30 C21        -3.5949   -2.3246    0.1184 C.3       1 AFA         0.1117 
     31 H1         -4.3940   -2.2591    0.8715 H         1 AFA         0.0780 
     32 C22        -4.0074   -2.9414   -1.1956 C.3       1 AFA        -0.1231 
     33 C23        -2.6699   -3.2975   -1.8133 C.3       1 AFA         0.1280 
     34 O3         -1.7744   -3.5828   -0.7302 O.3       1 AFA        -0.4194 
     35 C24        -2.3865   -3.1549    0.4988 C.3       1 AFA         0.1092 
     36 H2         -7.4462    0.6253   -5.2482 H         1 AFA         0.0365 
     37 H3         -6.7339    0.1693   -6.8330 H         1 AFA         0.0365 
     38 H4         -8.4299    0.7546   -6.7457 H         1 AFA         0.0365 
     39 H5         -6.5616    3.6068   -8.0529 H         1 AFA         0.0365 
     40 H6         -7.9201    2.4729   -8.3620 H         1 AFA         0.0365 
     41 H7         -6.2241    1.8876   -8.4493 H         1 AFA         0.0365 
     42 H8         -5.0237    1.5249   -6.0928 H         1 AFA         0.0456 
     43 H9         -5.1535    3.2995   -6.3391 H         1 AFA         0.0456 
     44 H10        -6.3246    3.4800   -4.0734 H         1 AFA         0.1650 
     45 H11        -4.5847    0.9269   -3.8735 H         1 AFA         0.1351 
     46 H13        -3.1533   -0.9064    2.5138 H         1 AFA         0.1630 
     47 H14        -5.7007    2.7665    0.3765 H         1 AFA         0.1803 
     48 H15        -4.7758    1.6541    6.0091 H         1 AFA         0.0550 
     49 H16        -6.1189    4.2930    1.5718 H         1 AFA         0.4610 
     50 H17        -8.2928    2.9682    4.1603 H         1 AFA         0.1540 
     51 H18        -8.8806    7.7144    2.8315 H         1 AFA         0.1552 
     52 H19        -6.9388    6.4340    1.9978 H         1 AFA         0.1586 
     53 H20        -4.6409   -3.8203   -1.0052 H         1 AFA         0.0640 
     54 H21        -4.5711   -2.2040   -1.7859 H         1 AFA         0.0640 
     55 H22        -2.7887   -4.1771   -2.4631 H         1 AFA         0.0523 
     56 H23        -2.3034   -2.4485   -2.4090 H         1 AFA         0.0523 
     57 H24        -1.6906   -2.5406    1.0890 H         1 AFA         0.0644 
     58 H25        -2.7094   -4.0199    1.0966 H         1 AFA         0.0644 
     59 H59        -6.0133    3.1882   -0.5591 H         1 AFA         0.0000 
@<TRIPOS>BOND
     1    1    2 1    
     2    1   36 1    
     3    1   37 1    
     4    1   38 1    
     5    2    3 1    
     6    2    4 1    
     7    3   39 1    
     8    3   40 1    
     9    3   41 1    
    10    4    5 1    
    11    4   42 1    
    12    4   43 1    
    13    5    6 2    
    14    5   44 1    
    15    6    7 1    
    16    6   45 1    
    17    7    8 2    
    18    7    9 1    
    19    8   59 1    
    20    9   10 1    
    21   10   15 ar   
    22   10   11 ar   
    23   11   12 ar   
    24   11   29 1    
    25   12   13 ar   
    26   12   46 1    
    27   13   19 ar   
    28   13   14 ar   
    29   14   15 ar   
    30   14   16 ar   
    31   15   47 1    
    32   16   17 ar   
    33   16   20 1    
    34   17   18 ar   
    35   18   19 ar   
    36   18   48 1    
    37   20   21 1    
    38   20   49 1    
    39   21   26 ar   
    40   21   22 ar   
    41   22   23 ar   
    42   22   50 1    
    43   23   24 ar   
    44   23   28 1    
    45   24   25 ar   
    46   24   27 1    
    47   25   26 ar   
    48   25   51 1    
    49   26   52 1    
    50   29   30 1    
    51   30   31 1    
    52   30   35 1    
    53   30   32 1    
    54   32   33 1    
    55   32   53 1    
    56   32   54 1    
    57   33   34 1    
    58   33   55 1    
    59   33   56 1    
    60   34   35 1    
    61   35   57 1    
    62   35   58 1    
@<TRIPOS>SUBSTRUCTURE
     1 AFA         1 GROUP             0       ****    0 ROOT    
