@<TRIPOS>MOLECULE
[4-(3-chloro-4-fluoro-anilino)-7-[(3~{S})-tetrahydrofuran-3-yl]oxy-quinazolin-6-yl]-[(~{E})-4-(dimethylammonio)-1-oxoniumylidene-but-2-enyl]azanide
   60    63     0     0     0
SMALL
USER_CHARGES

@<TRIPOS>ATOM
      1 C1         -7.4188    0.8604   -6.3235 C.3       1 <0>         0.0824
      2 N1         -6.9541    2.2345   -6.5099 N.4       1 <0>        -0.6846
      3 C2         -6.9103    2.5707   -7.9324 C.3       1 <0>         0.0824
      4 C3         -5.6397    2.4150   -5.9024 C.3       1 <0>         0.1574
      5 C4         -5.7409    2.6137   -4.4194 C.2       1 <0>        -0.2394
      6 C5         -5.1622    1.7967   -3.5279 C.2       1 <0>        -0.0341
      7 C6         -5.2942    2.0572   -2.0634 C.2       1 <0>         0.4532
      8 O1         -5.9296    3.0166   -1.6425 O.3       1 <0>        -0.7363
      9 N2         -4.6206    1.0931   -1.3249 N.2       1 <0>        -0.2129
     10 C7         -4.5211    1.0077    0.0654 C.ar      1 <0>        -0.0760
     11 C8         -3.8067   -0.0223    0.6671 C.ar      1 <0>         0.1396
     12 C9         -3.7167   -0.0923    2.0604 C.ar      1 <0>        -0.2152
     13 C10        -4.3304    0.8528    2.8788 C.ar      1 <0>         0.4622
     14 C11        -5.0493    1.8882    2.2594 C.ar      1 <0>        -0.3037
     15 C12        -5.1444    1.9655    0.8590 C.ar      1 <0>        -0.0803
     16 C13        -5.6484    2.8133    3.1098 C.ar      1 <0>         0.7133
     17 N3         -5.5709    2.7595    4.4528 N.ar      1 <0>        -0.7457
     18 C14        -4.8583    1.7271    4.9314 C.ar      1 <0>         0.6850
     19 N4         -4.2328    0.7694    4.2172 N.ar      1 <0>        -0.7063
     20 N5         -6.3900    3.8870    2.5575 N.pl3     1 <0>        -0.7529
     21 C15        -7.4938    4.6164    3.0274 C.ar      1 <0>         0.1494
     22 C16        -8.4247    4.0083    3.8697 C.ar      1 <0>        -0.1547
     23 C17        -9.5202    4.7338    4.3377 C.ar      1 <0>         0.0018
     24 C18        -9.6849    6.0674    3.9635 C.ar      1 <0>         0.1226
     25 C19        -8.7541    6.6754    3.1212 C.ar      1 <0>        -0.1333
     26 C20        -7.6586    5.9499    2.6531 C.ar      1 <0>        -0.1098
     27 F1        -10.7338    6.7771    4.4037 F         1 <0>        -0.1175
     28 Cl1       -10.6673    3.9767    5.3744 Cl        1 <0>        -0.0589
     29 O2         -3.1859   -0.9762   -0.0835 O.3       1 <0>        -0.3494
     30 C21        -3.5949   -2.3246    0.1184 C.3       1 <0>         0.1168
     31 H1         -4.3940   -2.2591    0.8715 H         1 <0>         0.0841
     32 C22        -4.0074   -2.9414   -1.1956 C.3       1 <0>        -0.1250
     33 C23        -2.6699   -3.2975   -1.8133 C.3       1 <0>         0.1302
     34 O3         -1.7744   -3.5828   -0.7302 O.3       1 <0>        -0.4154
     35 C24        -2.3865   -3.1549    0.4988 C.3       1 <0>         0.1088
     36 H2         -7.4455    0.6249   -5.2493 H         1 <0>         0.1066
     37 H3         -6.7321    0.1688   -6.8335 H         1 <0>         0.1066
     38 H4         -8.4282    0.7540   -6.7474 H         1 <0>         0.1066
     39 H5         -6.5592    3.6061   -8.0538 H         1 <0>         0.1066
     40 H6         -7.9174    2.4721   -8.3636 H         1 <0>         0.1066
     41 H7         -6.2213    1.8868   -8.4497 H         1 <0>         0.1066
     42 H8         -5.0225    1.5245   -6.0925 H         1 <0>         0.1073
     43 H9         -5.1522    3.2991   -6.3391 H         1 <0>         0.1073
     44 H10        -6.3244    3.4798   -4.0739 H         1 <0>         0.1760
     45 H11        -4.5847    0.9265   -3.8732 H         1 <0>         0.1667
     46 H12        -3.1533   -0.9064    2.5138 H         1 <0>         0.1731
     47 H13        -5.7007    2.7665    0.3765 H         1 <0>         0.1437
     48 H14        -4.7758    1.6541    6.0091 H         1 <0>         0.0687
     49 H15        -6.1189    4.2930    1.5718 H         1 <0>         0.4424
     50 H16        -8.2928    2.9682    4.1603 H         1 <0>         0.1480
     51 H17        -8.8806    7.7144    2.8314 H         1 <0>         0.1624
     52 H18        -6.9388    6.4340    1.9978 H         1 <0>         0.1583
     53 H19        -4.6409   -3.8203   -1.0052 H         1 <0>         0.0709
     54 H20        -4.5711   -2.2040   -1.7859 H         1 <0>         0.0709
     55 H21        -2.7887   -4.1771   -2.4631 H         1 <0>         0.0440
     56 H22        -2.3034   -2.4485   -2.4090 H         1 <0>         0.0440
     57 H23        -1.6906   -2.5406    1.0890 H         1 <0>         0.0681
     58 H24        -2.7094   -4.0199    1.0966 H         1 <0>         0.0681
     59 H25        -6.0132    3.1884   -0.5592 H         1 <0>         0.4514
     60 H26        -7.6618    2.9136   -6.0120 H         1 <0>         0.4513
@<TRIPOS>BOND
     1    1    2 1
     2    1   36 1
     3    1   37 1
     4    1   38 1
     5    2    3 1
     6    2    4 1
     7    2   60 1
     8    3   39 1
     9    3   40 1
    10    3   41 1
    11    4    5 1
    12    4   42 1
    13    4   43 1
    14    5    6 2
    15    5   44 1
    16    6    7 1
    17    6   45 1
    18    7    8 2
    19    7    9 1
    20    8   59 1
    21    9   10 1
    22   10   15 ar
    23   10   11 ar
    24   11   12 ar
    25   11   29 1
    26   12   13 ar
    27   12   46 1
    28   13   19 ar
    29   13   14 ar
    30   14   15 ar
    31   14   16 ar
    32   15   47 1
    33   16   17 ar
    34   16   20 1
    35   17   18 ar
    36   18   19 ar
    37   18   48 1
    38   20   21 1
    39   20   49 1
    40   21   26 ar
    41   21   22 ar
    42   22   23 ar
    43   22   50 1
    44   23   24 ar
    45   23   28 1
    46   24   25 ar
    47   24   27 1
    48   25   26 ar
    49   25   51 1
    50   26   52 1
    51   29   30 1
    52   30   31 1
    53   30   35 1
    54   30   32 1
    55   32   33 1
    56   32   53 1
    57   32   54 1
    58   33   34 1
    59   33   55 1
    60   33   56 1
    61   34   35 1
    62   35   57 1
    63   35   58 1
@<TRIPOS>MOLECULE
[(~{E})-4-[[4-(3-chloro-4-fluoro-anilino)-7-[(3~{S})-tetrahydrofuran-3-yl]oxy-quinazolin-6-yl]amino]-4-oxo-but-2-enyl]-dimethyl-ammonium
   60    63     0     0     0
SMALL
USER_CHARGES

@<TRIPOS>ATOM
      1 C1         -7.4188    0.8604   -6.3235 C.3       1 <0>         0.0803
      2 N1         -6.9541    2.2345   -6.5099 N.4       1 <0>        -0.6796
      3 C2         -6.9103    2.5707   -7.9324 C.3       1 <0>         0.0803
      4 C3         -5.6397    2.4150   -5.9024 C.3       1 <0>         0.1462
      5 C4         -5.7409    2.6137   -4.4194 C.2       1 <0>        -0.2011
      6 C5         -5.1622    1.7967   -3.5279 C.2       1 <0>        -0.1364
      7 C6         -5.2942    2.0572   -2.0634 C.2       1 <0>         0.6477
      8 O1         -5.9296    3.0166   -1.6425 O.2       1 <0>        -0.5898
      9 N2         -4.6206    1.0931   -1.3249 N.am      1 <0>        -0.4329
     10 C7         -4.5211    1.0077    0.0654 C.ar      1 <0>         0.0141
     11 C8         -3.8067   -0.0223    0.6671 C.ar      1 <0>         0.1028
     12 C9         -3.7167   -0.0923    2.0604 C.ar      1 <0>        -0.1952
     13 C10        -4.3304    0.8528    2.8788 C.ar      1 <0>         0.4520
     14 C11        -5.0493    1.8882    2.2594 C.ar      1 <0>        -0.2956
     15 C12        -5.1444    1.9655    0.8590 C.ar      1 <0>        -0.0995
     16 C13        -5.6484    2.8133    3.1098 C.ar      1 <0>         0.7199
     17 N3         -5.5709    2.7595    4.4528 N.ar      1 <0>        -0.7511
     18 C14        -4.8583    1.7271    4.9314 C.ar      1 <0>         0.6843
     19 N4         -4.2328    0.7694    4.2172 N.ar      1 <0>        -0.7089
     20 N5         -6.3900    3.8870    2.5575 N.pl3     1 <0>        -0.7565
     21 C15        -7.4938    4.6164    3.0274 C.ar      1 <0>         0.1562
     22 C16        -8.4247    4.0083    3.8697 C.ar      1 <0>        -0.1525
     23 C17        -9.5202    4.7338    4.3377 C.ar      1 <0>        -0.0004
     24 C18        -9.6849    6.0674    3.9635 C.ar      1 <0>         0.1197
     25 C19        -8.7541    6.6754    3.1212 C.ar      1 <0>        -0.1329
     26 C20        -7.6586    5.9499    2.6531 C.ar      1 <0>        -0.1135
     27 F1        -10.7338    6.7771    4.4037 F         1 <0>        -0.1196
     28 Cl1       -10.6673    3.9767    5.3744 Cl        1 <0>        -0.0612
     29 O2         -3.1859   -0.9762   -0.0835 O.3       1 <0>        -0.3596
     30 C21        -3.5949   -2.3246    0.1184 C.3       1 <0>         0.1122
     31 H1         -4.3940   -2.2591    0.8715 H         1 <0>         0.0820
     32 C22        -4.0074   -2.9414   -1.1956 C.3       1 <0>        -0.1226
     33 C23        -2.6699   -3.2975   -1.8133 C.3       1 <0>         0.1272
     34 O3         -1.7744   -3.5828   -0.7302 O.3       1 <0>        -0.4099
     35 C24        -2.3865   -3.1549    0.4988 C.3       1 <0>         0.1073
     36 H2         -7.4455    0.6249   -5.2493 H         1 <0>         0.1076
     37 H3         -6.7321    0.1688   -6.8335 H         1 <0>         0.1076
     38 H4         -8.4282    0.7540   -6.7474 H         1 <0>         0.1076
     39 H5         -6.5592    3.6061   -8.0538 H         1 <0>         0.1076
     40 H6         -7.9174    2.4721   -8.3636 H         1 <0>         0.1076
     41 H7         -6.2213    1.8868   -8.4497 H         1 <0>         0.1076
     42 H8         -5.0225    1.5245   -6.0925 H         1 <0>         0.1102
     43 H9         -5.1522    3.2991   -6.3391 H         1 <0>         0.1102
     44 H10        -6.3244    3.4798   -4.0739 H         1 <0>         0.1837
     45 H11        -4.5847    0.9265   -3.8732 H         1 <0>         0.1441
     46 H12        -4.0868    0.2801   -1.8388 H         1 <0>         0.3395
     47 H13        -3.1533   -0.9064    2.5138 H         1 <0>         0.1734
     48 H14        -5.7007    2.7665    0.3765 H         1 <0>         0.1710
     49 H15        -4.7758    1.6541    6.0091 H         1 <0>         0.0666
     50 H16        -6.1189    4.2930    1.5718 H         1 <0>         0.4535
     51 H17        -8.2928    2.9682    4.1603 H         1 <0>         0.1492
     52 H18        -8.8806    7.7144    2.8314 H         1 <0>         0.1624
     53 H19        -6.9388    6.4340    1.9978 H         1 <0>         0.1595
     54 H20        -4.6409   -3.8203   -1.0052 H         1 <0>         0.0576
     55 H21        -4.5711   -2.2040   -1.7859 H         1 <0>         0.0576
     56 H22        -2.7887   -4.1771   -2.4631 H         1 <0>         0.0522
     57 H23        -2.3034   -2.4485   -2.4090 H         1 <0>         0.0522
     58 H24        -1.6906   -2.5406    1.0890 H         1 <0>         0.0720
     59 H25        -2.7094   -4.0199    1.0966 H         1 <0>         0.0720
     60 H26        -7.6618    2.9136   -6.0120 H         1 <0>         0.4542
@<TRIPOS>BOND
     1    1    2 1
     2    1   36 1
     3    1   37 1
     4    1   38 1
     5    2    3 1
     6    2    4 1
     7    2   60 1
     8    3   39 1
     9    3   40 1
    10    3   41 1
    11    4    5 1
    12    4   42 1
    13    4   43 1
    14    5    6 2
    15    5   44 1
    16    6    7 1
    17    6   45 1
    18    7    8 2
    19    7    9 am
    20    9   10 1
    21    9   46 1
    22   10   15 ar
    23   10   11 ar
    24   11   12 ar
    25   11   29 1
    26   12   13 ar
    27   12   47 1
    28   13   19 ar
    29   13   14 ar
    30   14   15 ar
    31   14   16 ar
    32   15   48 1
    33   16   17 ar
    34   16   20 1
    35   17   18 ar
    36   18   19 ar
    37   18   49 1
    38   20   21 1
    39   20   50 1
    40   21   26 ar
    41   21   22 ar
    42   22   23 ar
    43   22   51 1
    44   23   24 ar
    45   23   28 1
    46   24   25 ar
    47   24   27 1
    48   25   26 ar
    49   25   52 1
    50   26   53 1
    51   29   30 1
    52   30   31 1
    53   30   35 1
    54   30   32 1
    55   32   33 1
    56   32   54 1
    57   32   55 1
    58   33   34 1
    59   33   56 1
    60   33   57 1
    61   34   35 1
    62   35   58 1
    63   35   59 1
@<TRIPOS>MOLECULE
(~{E})-~{N}-[4-(3-chloro-4-fluoro-anilino)-7-[(3~{S})-tetrahydrofuran-3-yl]oxy-quinazolin-6-yl]-4-(dimethylamino)but-2-enamide
   59    62     0     0     0
SMALL
USER_CHARGES

@<TRIPOS>ATOM
      1 C1         -7.4188    0.8604   -6.3235 C.3       1 <0>         0.1422
      2 N1         -6.9541    2.2345   -6.5099 N.3       1 <0>        -0.7109
      3 C2         -6.9103    2.5707   -7.9324 C.3       1 <0>         0.1422
      4 C3         -5.6397    2.4150   -5.9024 C.3       1 <0>         0.1681
      5 C4         -5.7409    2.6137   -4.4194 C.2       1 <0>        -0.0618
      6 C5         -5.1622    1.7967   -3.5279 C.2       1 <0>        -0.2549
      7 C6         -5.2942    2.0572   -2.0634 C.2       1 <0>         0.6656
      8 O1         -5.9296    3.0166   -1.6425 O.2       1 <0>        -0.5999
      9 N2         -4.6206    1.0931   -1.3249 N.am      1 <0>        -0.4646
     10 C7         -4.5211    1.0077    0.0654 C.ar      1 <0>         0.0474
     11 C8         -3.8067   -0.0223    0.6671 C.ar      1 <0>         0.0972
     12 C9         -3.7167   -0.0923    2.0604 C.ar      1 <0>        -0.2025
     13 C10        -4.3304    0.8528    2.8788 C.ar      1 <0>         0.4355
     14 C11        -5.0493    1.8882    2.2594 C.ar      1 <0>        -0.2821
     15 C12        -5.1444    1.9655    0.8590 C.ar      1 <0>        -0.1131
     16 C13        -5.6484    2.8133    3.1098 C.ar      1 <0>         0.6989
     17 N3         -5.5709    2.7595    4.4528 N.ar      1 <0>        -0.7577
     18 C14        -4.8583    1.7271    4.9314 C.ar      1 <0>         0.6698
     19 N4         -4.2328    0.7694    4.2172 N.ar      1 <0>        -0.7103
     20 N5         -6.3900    3.8870    2.5575 N.pl3     1 <0>        -0.7234
     21 C15        -7.4938    4.6164    3.0274 C.ar      1 <0>         0.1188
     22 C16        -8.4247    4.0083    3.8697 C.ar      1 <0>        -0.0783
     23 C17        -9.5202    4.7338    4.3377 C.ar      1 <0>        -0.0150
     24 C18        -9.6849    6.0674    3.9635 C.ar      1 <0>         0.1261
     25 C19        -8.7541    6.6754    3.1212 C.ar      1 <0>        -0.1468
     26 C20        -7.6586    5.9499    2.6531 C.ar      1 <0>        -0.1379
     27 F1        -10.7338    6.7771    4.4037 F         1 <0>        -0.1254
     28 Cl1       -10.6673    3.9767    5.3744 Cl        1 <0>        -0.0625
     29 O2         -3.1859   -0.9762   -0.0835 O.3       1 <0>        -0.3544
     30 C21        -3.5949   -2.3246    0.1184 C.3       1 <0>         0.1148
     31 H1         -4.3940   -2.2591    0.8715 H         1 <0>         0.0801
     32 C22        -4.0074   -2.9414   -1.1956 C.3       1 <0>        -0.1237
     33 C23        -2.6699   -3.2975   -1.8133 C.3       1 <0>         0.1275
     34 O3         -1.7744   -3.5828   -0.7302 O.3       1 <0>        -0.4189
     35 C24        -2.3865   -3.1549    0.4988 C.3       1 <0>         0.1092
     36 H2         -7.4455    0.6249   -5.2493 H         1 <0>         0.0361
     37 H3         -6.7321    0.1688   -6.8335 H         1 <0>         0.0361
     38 H4         -8.4282    0.7540   -6.7474 H         1 <0>         0.0361
     39 H5         -6.5592    3.6061   -8.0538 H         1 <0>         0.0361
     40 H6         -7.9174    2.4721   -8.3636 H         1 <0>         0.0361
     41 H7         -6.2213    1.8868   -8.4497 H         1 <0>         0.0361
     42 H8         -5.0225    1.5245   -6.0925 H         1 <0>         0.0464
     43 H9         -5.1522    3.2991   -6.3391 H         1 <0>         0.0464
     44 H10        -6.3244    3.4798   -4.0739 H         1 <0>         0.1597
     45 H11        -4.5847    0.9265   -3.8732 H         1 <0>         0.1401
     46 H12        -4.0868    0.2801   -1.8388 H         1 <0>         0.3354
     47 H13        -3.1533   -0.9064    2.5138 H         1 <0>         0.1635
     48 H14        -5.7007    2.7665    0.3765 H         1 <0>         0.1623
     49 H15        -4.7758    1.6541    6.0091 H         1 <0>         0.0555
     50 H16        -6.1189    4.2930    1.5718 H         1 <0>         0.4375
     51 H17        -8.2928    2.9682    4.1603 H         1 <0>         0.1773
     52 H18        -8.8806    7.7144    2.8314 H         1 <0>         0.1553
     53 H19        -6.9388    6.4340    1.9978 H         1 <0>         0.1429
     54 H20        -4.6409   -3.8203   -1.0052 H         1 <0>         0.0663
     55 H21        -4.5711   -2.2040   -1.7859 H         1 <0>         0.0663
     56 H22        -2.7887   -4.1771   -2.4631 H         1 <0>         0.0514
     57 H23        -2.3034   -2.4485   -2.4090 H         1 <0>         0.0514
     58 H24        -1.6906   -2.5406    1.0890 H         1 <0>         0.0630
     59 H25        -2.7094   -4.0199    1.0966 H         1 <0>         0.0630
@<TRIPOS>BOND
     1    1    2 1
     2    1   36 1
     3    1   37 1
     4    1   38 1
     5    2    3 1
     6    2    4 1
     7    3   39 1
     8    3   40 1
     9    3   41 1
    10    4    5 1
    11    4   42 1
    12    4   43 1
    13    5    6 2
    14    5   44 1
    15    6    7 1
    16    6   45 1
    17    7    8 2
    18    7    9 am
    19    9   10 1
    20    9   46 1
    21   10   15 ar
    22   10   11 ar
    23   11   12 ar
    24   11   29 1
    25   12   13 ar
    26   12   47 1
    27   13   19 ar
    28   13   14 ar
    29   14   15 ar
    30   14   16 ar
    31   15   48 1
    32   16   17 ar
    33   16   20 1
    34   17   18 ar
    35   18   19 ar
    36   18   49 1
    37   20   21 1
    38   20   50 1
    39   21   26 ar
    40   21   22 ar
    41   22   23 ar
    42   22   51 1
    43   23   24 ar
    44   23   28 1
    45   24   25 ar
    46   24   27 1
    47   25   26 ar
    48   25   52 1
    49   26   53 1
    50   29   30 1
    51   30   31 1
    52   30   35 1
    53   30   32 1
    54   32   33 1
    55   32   54 1
    56   32   55 1
    57   33   34 1
    58   33   56 1
    59   33   57 1
    60   34   35 1
    61   35   58 1
    62   35   59 1
@<TRIPOS>MOLECULE
[4-(3-chloro-4-fluoro-anilino)-7-[(3~{S})-tetrahydrofuran-3-yl]oxy-quinazolin-6-yl]-[(~{E})-4-(dimethylamino)-1-oxoniumylidene-but-2-enyl]azanide
   59    62     0     0     0
SMALL
USER_CHARGES

@<TRIPOS>ATOM
      1 C1         -7.4188    0.8604   -6.3235 C.3       1 <0>         0.1516
      2 N1         -6.9541    2.2345   -6.5099 N.3       1 <0>        -0.7249
      3 C2         -6.9103    2.5707   -7.9324 C.3       1 <0>         0.1516
      4 C3         -5.6397    2.4150   -5.9024 C.3       1 <0>         0.1785
      5 C4         -5.7409    2.6137   -4.4194 C.2       1 <0>        -0.0855
      6 C5         -5.1622    1.7967   -3.5279 C.2       1 <0>        -0.1733
      7 C6         -5.2942    2.0572   -2.0634 C.2       1 <0>         0.5094
      8 O1         -5.9296    3.0166   -1.6425 O.3       1 <0>        -0.7313
      9 N2         -4.6206    1.0931   -1.3249 N.2       1 <0>        -0.2778
     10 C7         -4.5211    1.0077    0.0654 C.ar      1 <0>        -0.0295
     11 C8         -3.8067   -0.0223    0.6671 C.ar      1 <0>         0.1250
     12 C9         -3.7167   -0.0923    2.0604 C.ar      1 <0>        -0.2145
     13 C10        -4.3304    0.8528    2.8788 C.ar      1 <0>         0.4382
     14 C11        -5.0493    1.8882    2.2594 C.ar      1 <0>        -0.2829
     15 C12        -5.1444    1.9655    0.8590 C.ar      1 <0>        -0.1044
     16 C13        -5.6484    2.8133    3.1098 C.ar      1 <0>         0.7001
     17 N3         -5.5709    2.7595    4.4528 N.ar      1 <0>        -0.7518
     18 C14        -4.8583    1.7271    4.9314 C.ar      1 <0>         0.6645
     19 N4         -4.2328    0.7694    4.2172 N.ar      1 <0>        -0.7021
     20 N5         -6.3900    3.8870    2.5575 N.pl3     1 <0>        -0.7523
     21 C15        -7.4938    4.6164    3.0274 C.ar      1 <0>         0.1616
     22 C16        -8.4247    4.0083    3.8697 C.ar      1 <0>        -0.1605
     23 C17        -9.5202    4.7338    4.3377 C.ar      1 <0>         0.0053
     24 C18        -9.6849    6.0674    3.9635 C.ar      1 <0>         0.1089
     25 C19        -8.7541    6.6754    3.1212 C.ar      1 <0>        -0.1332
     26 C20        -7.6586    5.9499    2.6531 C.ar      1 <0>        -0.1141
     27 F1        -10.7338    6.7771    4.4037 F         1 <0>        -0.1260
     28 Cl1       -10.6673    3.9767    5.3744 Cl        1 <0>        -0.0672
     29 O2         -3.1859   -0.9762   -0.0835 O.3       1 <0>        -0.3400
     30 C21        -3.5949   -2.3246    0.1184 C.3       1 <0>         0.1171
     31 H1         -4.3940   -2.2591    0.8715 H         1 <0>         0.0743
     32 C22        -4.0074   -2.9414   -1.1956 C.3       1 <0>        -0.1255
     33 C23        -2.6699   -3.2975   -1.8133 C.3       1 <0>         0.1271
     34 O3         -1.7744   -3.5828   -0.7302 O.3       1 <0>        -0.4211
     35 C24        -2.3865   -3.1549    0.4988 C.3       1 <0>         0.1095
     36 H2         -7.4455    0.6249   -5.2493 H         1 <0>         0.0348
     37 H3         -6.7321    0.1688   -6.8335 H         1 <0>         0.0348
     38 H4         -8.4282    0.7540   -6.7474 H         1 <0>         0.0348
     39 H5         -6.5592    3.6061   -8.0538 H         1 <0>         0.0348
     40 H6         -7.9174    2.4721   -8.3636 H         1 <0>         0.0348
     41 H7         -6.2213    1.8868   -8.4497 H         1 <0>         0.0348
     42 H8         -5.0225    1.5245   -6.0925 H         1 <0>         0.0426
     43 H9         -5.1522    3.2991   -6.3391 H         1 <0>         0.0426
     44 H10        -6.3244    3.4798   -4.0739 H         1 <0>         0.1569
     45 H11        -4.5847    0.9265   -3.8732 H         1 <0>         0.1561
     46 H12        -3.1533   -0.9064    2.5138 H         1 <0>         0.1660
     47 H13        -5.7007    2.7665    0.3765 H         1 <0>         0.1485
     48 H14        -4.7758    1.6541    6.0091 H         1 <0>         0.0582
     49 H15        -6.1189    4.2930    1.5718 H         1 <0>         0.4457
     50 H16        -8.2928    2.9682    4.1603 H         1 <0>         0.1500
     51 H17        -8.8806    7.7144    2.8314 H         1 <0>         0.1567
     52 H18        -6.9388    6.4340    1.9978 H         1 <0>         0.1580
     53 H19        -4.6409   -3.8203   -1.0052 H         1 <0>         0.0731
     54 H20        -4.5711   -2.2040   -1.7859 H         1 <0>         0.0731
     55 H21        -2.7887   -4.1771   -2.4631 H         1 <0>         0.0521
     56 H22        -2.3034   -2.4485   -2.4090 H         1 <0>         0.0521
     57 H23        -1.6906   -2.5406    1.0890 H         1 <0>         0.0610
     58 H24        -2.7094   -4.0199    1.0966 H         1 <0>         0.0610
     59 H25        -6.0132    3.1884   -0.5592 H         1 <0>         0.4324
@<TRIPOS>BOND
     1    1    2 1
     2    1   36 1
     3    1   37 1
     4    1   38 1
     5    2    3 1
     6    2    4 1
     7    3   39 1
     8    3   40 1
     9    3   41 1
    10    4    5 1
    11    4   42 1
    12    4   43 1
    13    5    6 2
    14    5   44 1
    15    6    7 1
    16    6   45 1
    17    7    8 2
    18    7    9 1
    19    8   59 1
    20    9   10 1
    21   10   15 ar
    22   10   11 ar
    23   11   12 ar
    24   11   29 1
    25   12   13 ar
    26   12   46 1
    27   13   19 ar
    28   13   14 ar
    29   14   15 ar
    30   14   16 ar
    31   15   47 1
    32   16   17 ar
    33   16   20 1
    34   17   18 ar
    35   18   19 ar
    36   18   48 1
    37   20   21 1
    38   20   49 1
    39   21   26 ar
    40   21   22 ar
    41   22   23 ar
    42   22   50 1
    43   23   24 ar
    44   23   28 1
    45   24   25 ar
    46   24   27 1
    47   25   26 ar
    48   25   51 1
    49   26   52 1
    50   29   30 1
    51   30   31 1
    52   30   35 1
    53   30   32 1
    54   32   33 1
    55   32   53 1
    56   32   54 1
    57   33   34 1
    58   33   55 1
    59   33   56 1
    60   34   35 1
    61   35   57 1
    62   35   58 1
@<TRIPOS>MOLECULE
[4-(3-chloro-4-fluoro-anilino)-7-[(3~{S})-tetrahydrofuran-3-yl]oxy-quinazolin-1-ium-6-yl]-[(~{E})-4-(dimethylammonio)-1-oxoniumylidene-but-2-enyl]azanide
   61    64     0     0     0
SMALL
USER_CHARGES

@<TRIPOS>ATOM
      1 C1         -7.4188    0.8604   -6.3235 C.3       1 <0>         0.0785
      2 N1         -6.9541    2.2345   -6.5099 N.4       1 <0>        -0.6788
      3 C2         -6.9103    2.5707   -7.9324 C.3       1 <0>         0.0785
      4 C3         -5.6397    2.4150   -5.9024 C.3       1 <0>         0.1449
      5 C4         -5.7409    2.6137   -4.4194 C.2       1 <0>        -0.1997
      6 C5         -5.1622    1.7967   -3.5279 C.2       1 <0>        -0.0637
      7 C6         -5.2942    2.0572   -2.0634 C.2       1 <0>         0.5073
      8 O1         -5.9296    3.0166   -1.6425 O.3       1 <0>        -0.7151
      9 N2         -4.6206    1.0931   -1.3249 N.2       1 <0>        -0.2584
     10 C7         -4.5211    1.0077    0.0654 C.ar      1 <0>        -0.0362
     11 C8         -3.8067   -0.0223    0.6671 C.ar      1 <0>         0.1848
     12 C9         -3.7167   -0.0923    2.0604 C.ar      1 <0>        -0.2007
     13 C10        -4.3304    0.8528    2.8788 C.ar      1 <0>         0.0875
     14 C11        -5.0493    1.8882    2.2594 C.ar      1 <0>        -0.2386
     15 C12        -5.1444    1.9655    0.8590 C.ar      1 <0>        -0.0624
     16 C13        -5.6484    2.8133    3.1098 C.ar      1 <0>         0.7766
     17 N3         -5.5709    2.7595    4.4528 N.ar      1 <0>        -0.7345
     18 C14        -4.8583    1.7271    4.9314 C.ar      1 <0>         0.6391
     19 N4         -4.2328    0.7694    4.2172 N.ar      1 <0>        -0.3387
     20 N5         -6.3900    3.8870    2.5575 N.pl3     1 <0>        -0.6346
     21 C15        -7.4938    4.6164    3.0274 C.ar      1 <0>         0.0537
     22 C16        -8.4247    4.0083    3.8697 C.ar      1 <0>        -0.0991
     23 C17        -9.5202    4.7338    4.3377 C.ar      1 <0>        -0.0163
     24 C18        -9.6849    6.0674    3.9635 C.ar      1 <0>         0.1822
     25 C19        -8.7541    6.6754    3.1212 C.ar      1 <0>        -0.1465
     26 C20        -7.6586    5.9499    2.6531 C.ar      1 <0>        -0.0793
     27 F1        -10.7338    6.7771    4.4037 F         1 <0>        -0.0889
     28 Cl1       -10.6673    3.9767    5.3744 Cl        1 <0>        -0.0078
     29 O2         -3.1859   -0.9762   -0.0835 O.3       1 <0>        -0.3394
     30 C21        -3.5949   -2.3246    0.1184 C.3       1 <0>         0.1131
     31 H1         -4.3940   -2.2591    0.8715 H         1 <0>         0.0674
     32 C22        -4.0074   -2.9414   -1.1956 C.3       1 <0>        -0.1478
     33 C23        -2.6699   -3.2975   -1.8133 C.3       1 <0>         0.1257
     34 O3         -1.7744   -3.5828   -0.7302 O.3       1 <0>        -0.4088
     35 C24        -2.3865   -3.1549    0.4988 C.3       1 <0>         0.1292
     36 H2         -7.4455    0.6249   -5.2493 H         1 <0>         0.1096
     37 H3         -6.7321    0.1688   -6.8335 H         1 <0>         0.1096
     38 H4         -8.4282    0.7540   -6.7474 H         1 <0>         0.1096
     39 H5         -6.5592    3.6061   -8.0538 H         1 <0>         0.1096
     40 H6         -7.9174    2.4721   -8.3636 H         1 <0>         0.1096
     41 H7         -6.2213    1.8868   -8.4497 H         1 <0>         0.1096
     42 H8         -5.0225    1.5245   -6.0925 H         1 <0>         0.1154
     43 H9         -5.1522    3.2991   -6.3391 H         1 <0>         0.1154
     44 H10        -6.3244    3.4798   -4.0739 H         1 <0>         0.1784
     45 H11        -4.5847    0.9265   -3.8732 H         1 <0>         0.1735
     46 H12        -3.1533   -0.9064    2.5138 H         1 <0>         0.1795
     47 H13        -5.7007    2.7665    0.3765 H         1 <0>         0.1612
     48 H14        -4.7758    1.6541    6.0091 H         1 <0>         0.1049
     49 H15        -6.1189    4.2930    1.5718 H         1 <0>         0.4732
     50 H16        -8.2928    2.9682    4.1603 H         1 <0>         0.1653
     51 H17        -8.8806    7.7144    2.8314 H         1 <0>         0.1801
     52 H18        -6.9388    6.4340    1.9978 H         1 <0>         0.1547
     53 H19        -4.6409   -3.8203   -1.0052 H         1 <0>         0.0732
     54 H20        -4.5711   -2.2040   -1.7859 H         1 <0>         0.0732
     55 H21        -2.7887   -4.1771   -2.4631 H         1 <0>         0.0706
     56 H22        -2.3034   -2.4485   -2.4090 H         1 <0>         0.0706
     57 H23        -1.6906   -2.5406    1.0890 H         1 <0>         0.0692
     58 H24        -2.7094   -4.0199    1.0966 H         1 <0>         0.0692
     59 H25        -6.0132    3.1884   -0.5592 H         1 <0>         0.4465
     60 H26        -7.6618    2.9136   -6.0120 H         1 <0>         0.4554
     61 H27        -3.6634   -0.0518    4.6770 H         1 <0>         0.3401
@<TRIPOS>BOND
     1    1    2 1
     2    1   36 1
     3    1   37 1
     4    1   38 1
     5    2    3 1
     6    2    4 1
     7    2   60 1
     8    3   39 1
     9    3   40 1
    10    3   41 1
    11    4    5 1
    12    4   42 1
    13    4   43 1
    14    5    6 2
    15    5   44 1
    16    6    7 1
    17    6   45 1
    18    7    8 2
    19    7    9 1
    20    8   59 1
    21    9   10 1
    22   10   15 ar
    23   10   11 ar
    24   11   12 ar
    25   11   29 1
    26   12   13 ar
    27   12   46 1
    28   13   19 ar
    29   13   14 ar
    30   14   15 ar
    31   14   16 ar
    32   15   47 1
    33   16   17 ar
    34   16   20 1
    35   17   18 ar
    36   18   19 ar
    37   18   48 1
    38   19   61 1
    39   20   21 1
    40   20   49 1
    41   21   26 ar
    42   21   22 ar
    43   22   23 ar
    44   22   50 1
    45   23   24 ar
    46   23   28 1
    47   24   25 ar
    48   24   27 1
    49   25   26 ar
    50   25   51 1
    51   26   52 1
    52   29   30 1
    53   30   31 1
    54   30   35 1
    55   30   32 1
    56   32   33 1
    57   32   53 1
    58   32   54 1
    59   33   34 1
    60   33   55 1
    61   33   56 1
    62   34   35 1
    63   35   57 1
    64   35   58 1
@<TRIPOS>MOLECULE
[(~{E})-1-[[4-(3-chloro-4-fluoro-anilino)-7-[(3~{S})-tetrahydrofuran-3-yl]oxy-quinazolin-6-yl]amino]-4-(dimethylamino)but-2-enylidene]oxonium
   60    63     0     0     0
SMALL
USER_CHARGES

@<TRIPOS>ATOM
      1 C1         -7.4188    0.8604   -6.3235 C.3       1 <0>         0.1341
      2 N1         -6.9541    2.2345   -6.5099 N.3       1 <0>        -0.7073
      3 C2         -6.9103    2.5707   -7.9324 C.3       1 <0>         0.1341
      4 C3         -5.6397    2.4150   -5.9024 C.3       1 <0>         0.1511
      5 C4         -5.7409    2.6137   -4.4194 C.2       1 <0>         0.0205
      6 C5         -5.1622    1.7967   -3.5279 C.2       1 <0>        -0.3039
      7 C6         -5.2942    2.0572   -2.0634 C.2       1 <0>         0.6235
      8 O1         -5.9296    3.0166   -1.6425 O.3       1 <0>        -0.6624
      9 N2         -4.6206    1.0931   -1.3249 N.am      1 <0>        -0.2527
     10 C7         -4.5211    1.0077    0.0654 C.ar      1 <0>        -0.0780
     11 C8         -3.8067   -0.0223    0.6671 C.ar      1 <0>         0.1406
     12 C9         -3.7167   -0.0923    2.0604 C.ar      1 <0>        -0.2001
     13 C10        -4.3304    0.8528    2.8788 C.ar      1 <0>         0.4872
     14 C11        -5.0493    1.8882    2.2594 C.ar      1 <0>        -0.3185
     15 C12        -5.1444    1.9655    0.8590 C.ar      1 <0>        -0.0271
     16 C13        -5.6484    2.8133    3.1098 C.ar      1 <0>         0.7206
     17 N3         -5.5709    2.7595    4.4528 N.ar      1 <0>        -0.7373
     18 C14        -4.8583    1.7271    4.9314 C.ar      1 <0>         0.7087
     19 N4         -4.2328    0.7694    4.2172 N.ar      1 <0>        -0.7055
     20 N5         -6.3900    3.8870    2.5575 N.pl3     1 <0>        -0.7432
     21 C15        -7.4938    4.6164    3.0274 C.ar      1 <0>         0.1311
     22 C16        -8.4247    4.0083    3.8697 C.ar      1 <0>        -0.1514
     23 C17        -9.5202    4.7338    4.3377 C.ar      1 <0>        -0.0005
     24 C18        -9.6849    6.0674    3.9635 C.ar      1 <0>         0.1324
     25 C19        -8.7541    6.6754    3.1212 C.ar      1 <0>        -0.1338
     26 C20        -7.6586    5.9499    2.6531 C.ar      1 <0>        -0.1053
     27 F1        -10.7338    6.7771    4.4037 F         1 <0>        -0.1115
     28 Cl1       -10.6673    3.9767    5.3744 Cl        1 <0>        -0.0467
     29 O2         -3.1859   -0.9762   -0.0835 O.3       1 <0>        -0.3670
     30 C21        -3.5949   -2.3246    0.1184 C.3       1 <0>         0.1098
     31 H1         -4.3940   -2.2591    0.8715 H         1 <0>         0.0856
     32 C22        -4.0074   -2.9414   -1.1956 C.3       1 <0>        -0.1219
     33 C23        -2.6699   -3.2975   -1.8133 C.3       1 <0>         0.1256
     34 O3         -1.7744   -3.5828   -0.7302 O.3       1 <0>        -0.4032
     35 C24        -2.3865   -3.1549    0.4988 C.3       1 <0>         0.1094
     36 H2         -7.4455    0.6249   -5.2493 H         1 <0>         0.0479
     37 H3         -6.7321    0.1688   -6.8335 H         1 <0>         0.0479
     38 H4         -8.4282    0.7540   -6.7474 H         1 <0>         0.0479
     39 H5         -6.5592    3.6061   -8.0538 H         1 <0>         0.0479
     40 H6         -7.9174    2.4721   -8.3636 H         1 <0>         0.0479
     41 H7         -6.2213    1.8868   -8.4497 H         1 <0>         0.0479
     42 H8         -5.0225    1.5245   -6.0925 H         1 <0>         0.0702
     43 H9         -5.1522    3.2991   -6.3391 H         1 <0>         0.0702
     44 H10        -6.3244    3.4798   -4.0739 H         1 <0>         0.1453
     45 H11        -4.5847    0.9265   -3.8732 H         1 <0>         0.1817
     46 H12        -4.0868    0.2801   -1.8388 H         1 <0>         0.3882
     47 H13        -3.1533   -0.9064    2.5138 H         1 <0>         0.1877
     48 H14        -5.7007    2.7665    0.3765 H         1 <0>         0.1644
     49 H15        -4.7758    1.6541    6.0091 H         1 <0>         0.0799
     50 H16        -6.1189    4.2930    1.5718 H         1 <0>         0.4398
     51 H17        -8.2928    2.9682    4.1603 H         1 <0>         0.1484
     52 H18        -8.8806    7.7144    2.8314 H         1 <0>         0.1669
     53 H19        -6.9388    6.4340    1.9978 H         1 <0>         0.1568
     54 H20        -4.6409   -3.8203   -1.0052 H         1 <0>         0.0638
     55 H21        -4.5711   -2.2040   -1.7859 H         1 <0>         0.0638
     56 H22        -2.7887   -4.1771   -2.4631 H         1 <0>         0.0590
     57 H23        -2.3034   -2.4485   -2.4090 H         1 <0>         0.0590
     58 H24        -1.6906   -2.5406    1.0890 H         1 <0>         0.0738
     59 H25        -2.7094   -4.0199    1.0966 H         1 <0>         0.0738
     60 H26        -6.0132    3.1884   -0.5592 H         1 <0>         0.4827
@<TRIPOS>BOND
     1    1    2 1
     2    1   36 1
     3    1   37 1
     4    1   38 1
     5    2    3 1
     6    2    4 1
     7    3   39 1
     8    3   40 1
     9    3   41 1
    10    4    5 1
    11    4   42 1
    12    4   43 1
    13    5    6 2
    14    5   44 1
    15    6    7 1
    16    6   45 1
    17    7    8 2
    18    7    9 am
    19    8   60 1
    20    9   10 1
    21    9   46 1
    22   10   15 ar
    23   10   11 ar
    24   11   12 ar
    25   11   29 1
    26   12   13 ar
    27   12   47 1
    28   13   19 ar
    29   13   14 ar
    30   14   15 ar
    31   14   16 ar
    32   15   48 1
    33   16   17 ar
    34   16   20 1
    35   17   18 ar
    36   18   19 ar
    37   18   49 1
    38   20   21 1
    39   20   50 1
    40   21   26 ar
    41   21   22 ar
    42   22   23 ar
    43   22   51 1
    44   23   24 ar
    45   23   28 1
    46   24   25 ar
    47   24   27 1
    48   25   26 ar
    49   25   52 1
    50   26   53 1
    51   29   30 1
    52   30   31 1
    53   30   35 1
    54   30   32 1
    55   32   33 1
    56   32   54 1
    57   32   55 1
    58   33   34 1
    59   33   56 1
    60   33   57 1
    61   34   35 1
    62   35   58 1
    63   35   59 1
@<TRIPOS>MOLECULE
[4-(3-chloro-4-fluoro-anilino)-7-[(3~{S})-tetrahydrofuran-3-yl]oxy-quinazolin-1-ium-6-yl]-[(~{E})-4-(dimethylamino)-1-oxoniumylidene-but-2-enyl]azanide
   60    63     0     0     0
SMALL
USER_CHARGES

@<TRIPOS>ATOM
      1 C1         -7.4188    0.8604   -6.3235 C.3       1 <0>         0.1459
      2 N1         -6.9541    2.2345   -6.5099 N.3       1 <0>        -0.7191
      3 C2         -6.9103    2.5707   -7.9324 C.3       1 <0>         0.1459
      4 C3         -5.6397    2.4150   -5.9024 C.3       1 <0>         0.1681
      5 C4         -5.7409    2.6137   -4.4194 C.2       1 <0>        -0.0443
      6 C5         -5.1622    1.7967   -3.5279 C.2       1 <0>        -0.2035
      7 C6         -5.2942    2.0572   -2.0634 C.2       1 <0>         0.5516
      8 O1         -5.9296    3.0166   -1.6425 O.3       1 <0>        -0.7174
      9 N2         -4.6206    1.0931   -1.3249 N.2       1 <0>        -0.3062
     10 C7         -4.5211    1.0077    0.0654 C.ar      1 <0>         0.0092
     11 C8         -3.8067   -0.0223    0.6671 C.ar      1 <0>         0.2020
     12 C9         -3.7167   -0.0923    2.0604 C.ar      1 <0>        -0.2116
     13 C10        -4.3304    0.8528    2.8788 C.ar      1 <0>         0.0659
     14 C11        -5.0493    1.8882    2.2594 C.ar      1 <0>        -0.2291
     15 C12        -5.1444    1.9655    0.8590 C.ar      1 <0>        -0.1081
     16 C13        -5.6484    2.8133    3.1098 C.ar      1 <0>         0.7786
     17 N3         -5.5709    2.7595    4.4528 N.ar      1 <0>        -0.7318
     18 C14        -4.8583    1.7271    4.9314 C.ar      1 <0>         0.6258
     19 N4         -4.2328    0.7694    4.2172 N.ar      1 <0>        -0.3230
     20 N5         -6.3900    3.8870    2.5575 N.pl3     1 <0>        -0.6668
     21 C15        -7.4938    4.6164    3.0274 C.ar      1 <0>         0.0936
     22 C16        -8.4247    4.0083    3.8697 C.ar      1 <0>        -0.1039
     23 C17        -9.5202    4.7338    4.3377 C.ar      1 <0>        -0.0100
     24 C18        -9.6849    6.0674    3.9635 C.ar      1 <0>         0.1614
     25 C19        -8.7541    6.6754    3.1212 C.ar      1 <0>        -0.1331
     26 C20        -7.6586    5.9499    2.6531 C.ar      1 <0>        -0.1157
     27 F1        -10.7338    6.7771    4.4037 F         1 <0>        -0.0982
     28 Cl1       -10.6673    3.9767    5.3744 Cl        1 <0>        -0.0261
     29 O2         -3.1859   -0.9762   -0.0835 O.3       1 <0>        -0.3149
     30 C21        -3.5949   -2.3246    0.1184 C.3       1 <0>         0.1139
     31 H1         -4.3940   -2.2591    0.8715 H         1 <0>         0.0571
     32 C22        -4.0074   -2.9414   -1.1956 C.3       1 <0>        -0.1479
     33 C23        -2.6699   -3.2975   -1.8133 C.3       1 <0>         0.1286
     34 O3         -1.7744   -3.5828   -0.7302 O.3       1 <0>        -0.4074
     35 C24        -2.3865   -3.1549    0.4988 C.3       1 <0>         0.1294
     36 H2         -7.4455    0.6249   -5.2493 H         1 <0>         0.0393
     37 H3         -6.7321    0.1688   -6.8335 H         1 <0>         0.0393
     38 H4         -8.4282    0.7540   -6.7474 H         1 <0>         0.0393
     39 H5         -6.5592    3.6061   -8.0538 H         1 <0>         0.0393
     40 H6         -7.9174    2.4721   -8.3636 H         1 <0>         0.0393
     41 H7         -6.2213    1.8868   -8.4497 H         1 <0>         0.0393
     42 H8         -5.0225    1.5245   -6.0925 H         1 <0>         0.0508
     43 H9         -5.1522    3.2991   -6.3391 H         1 <0>         0.0508
     44 H10        -6.3244    3.4798   -4.0739 H         1 <0>         0.1585
     45 H11        -4.5847    0.9265   -3.8732 H         1 <0>         0.1684
     46 H12        -3.1533   -0.9064    2.5138 H         1 <0>         0.1728
     47 H13        -5.7007    2.7665    0.3765 H         1 <0>         0.1603
     48 H14        -4.7758    1.6541    6.0091 H         1 <0>         0.0968
     49 H15        -6.1189    4.2930    1.5718 H         1 <0>         0.4676
     50 H16        -8.2928    2.9682    4.1603 H         1 <0>         0.1651
     51 H17        -8.8806    7.7144    2.8314 H         1 <0>         0.1770
     52 H18        -6.9388    6.4340    1.9978 H         1 <0>         0.1550
     53 H19        -4.6409   -3.8203   -1.0052 H         1 <0>         0.0741
     54 H20        -4.5711   -2.2040   -1.7859 H         1 <0>         0.0741
     55 H21        -2.7887   -4.1771   -2.4631 H         1 <0>         0.0627
     56 H22        -2.3034   -2.4485   -2.4090 H         1 <0>         0.0627
     57 H23        -1.6906   -2.5406    1.0890 H         1 <0>         0.0734
     58 H24        -2.7094   -4.0199    1.0966 H         1 <0>         0.0734
     59 H25        -6.0132    3.1884   -0.5592 H         1 <0>         0.4257
     60 H26        -3.6634   -0.0518    4.6770 H         1 <0>         0.3364
@<TRIPOS>BOND
     1    1    2 1
     2    1   36 1
     3    1   37 1
     4    1   38 1
     5    2    3 1
     6    2    4 1
     7    3   39 1
     8    3   40 1
     9    3   41 1
    10    4    5 1
    11    4   42 1
    12    4   43 1
    13    5    6 2
    14    5   44 1
    15    6    7 1
    16    6   45 1
    17    7    8 2
    18    7    9 1
    19    8   59 1
    20    9   10 1
    21   10   15 ar
    22   10   11 ar
    23   11   12 ar
    24   11   29 1
    25   12   13 ar
    26   12   46 1
    27   13   19 ar
    28   13   14 ar
    29   14   15 ar
    30   14   16 ar
    31   15   47 1
    32   16   17 ar
    33   16   20 1
    34   17   18 ar
    35   18   19 ar
    36   18   48 1
    37   19   60 1
    38   20   21 1
    39   20   49 1
    40   21   26 ar
    41   21   22 ar
    42   22   23 ar
    43   22   50 1
    44   23   24 ar
    45   23   28 1
    46   24   25 ar
    47   24   27 1
    48   25   26 ar
    49   25   51 1
    50   26   52 1
    51   29   30 1
    52   30   31 1
    53   30   35 1
    54   30   32 1
    55   32   33 1
    56   32   53 1
    57   32   54 1
    58   33   34 1
    59   33   55 1
    60   33   56 1
    61   34   35 1
    62   35   57 1
    63   35   58 1
@<TRIPOS>MOLECULE
[4-(3-chloro-4-fluoro-anilino)-7-[(3~{S})-tetrahydrofuran-3-yl]oxy-quinazolin-3-ium-6-yl]-[(~{E})-4-(dimethylammonio)-1-oxoniumylidene-but-2-enyl]azanide
   61    64     0     0     0
SMALL
USER_CHARGES

@<TRIPOS>ATOM
      1 C1         -7.4188    0.8604   -6.3235 C.3       1 <0>         0.0814
      2 N1         -6.9541    2.2345   -6.5099 N.4       1 <0>        -0.6827
      3 C2         -6.9103    2.5707   -7.9324 C.3       1 <0>         0.0814
      4 C3         -5.6397    2.4150   -5.9024 C.3       1 <0>         0.1430
      5 C4         -5.7409    2.6137   -4.4194 C.2       1 <0>        -0.1947
      6 C5         -5.1622    1.7967   -3.5279 C.2       1 <0>        -0.0709
      7 C6         -5.2942    2.0572   -2.0634 C.2       1 <0>         0.5077
      8 O1         -5.9296    3.0166   -1.6425 O.3       1 <0>        -0.7149
      9 N2         -4.6206    1.0931   -1.3249 N.2       1 <0>        -0.2713
     10 C7         -4.5211    1.0077    0.0654 C.ar      1 <0>        -0.0284
     11 C8         -3.8067   -0.0223    0.6671 C.ar      1 <0>         0.1489
     12 C9         -3.7167   -0.0923    2.0604 C.ar      1 <0>        -0.1658
     13 C10        -4.3304    0.8528    2.8788 C.ar      1 <0>         0.4592
     14 C11        -5.0493    1.8882    2.2594 C.ar      1 <0>        -0.2233
     15 C12        -5.1444    1.9655    0.8590 C.ar      1 <0>        -0.0845
     16 C13        -5.6484    2.8133    3.1098 C.ar      1 <0>         0.3514
     17 N3         -5.5709    2.7595    4.4528 N.ar      1 <0>        -0.3401
     18 C14        -4.8583    1.7271    4.9314 C.ar      1 <0>         0.5570
     19 N4         -4.2328    0.7694    4.2172 N.ar      1 <0>        -0.6271
     20 N5         -6.3900    3.8870    2.5575 N.pl3     1 <0>        -0.5975
     21 C15        -7.4938    4.6164    3.0274 C.ar      1 <0>         0.0573
     22 C16        -8.4247    4.0083    3.8697 C.ar      1 <0>        -0.1406
     23 C17        -9.5202    4.7338    4.3377 C.ar      1 <0>        -0.0060
     24 C18        -9.6849    6.0674    3.9635 C.ar      1 <0>         0.1788
     25 C19        -8.7541    6.6754    3.1212 C.ar      1 <0>        -0.1286
     26 C20        -7.6586    5.9499    2.6531 C.ar      1 <0>        -0.1008
     27 F1        -10.7338    6.7771    4.4037 F         1 <0>        -0.0833
     28 Cl1       -10.6673    3.9767    5.3744 Cl        1 <0>        -0.0036
     29 O2         -3.1859   -0.9762   -0.0835 O.3       1 <0>        -0.3390
     30 C21        -3.5949   -2.3246    0.1184 C.3       1 <0>         0.1050
     31 H1         -4.3940   -2.2591    0.8715 H         1 <0>         0.0719
     32 C22        -4.0074   -2.9414   -1.1956 C.3       1 <0>        -0.1407
     33 C23        -2.6699   -3.2975   -1.8133 C.3       1 <0>         0.1276
     34 O3         -1.7744   -3.5828   -0.7302 O.3       1 <0>        -0.4034
     35 C24        -2.3865   -3.1549    0.4988 C.3       1 <0>         0.1322
     36 H2         -7.4455    0.6249   -5.2493 H         1 <0>         0.1093
     37 H3         -6.7321    0.1688   -6.8335 H         1 <0>         0.1093
     38 H4         -8.4282    0.7540   -6.7474 H         1 <0>         0.1093
     39 H5         -6.5592    3.6061   -8.0538 H         1 <0>         0.1093
     40 H6         -7.9174    2.4721   -8.3636 H         1 <0>         0.1093
     41 H7         -6.2213    1.8868   -8.4497 H         1 <0>         0.1093
     42 H8         -5.0225    1.5245   -6.0925 H         1 <0>         0.1164
     43 H9         -5.1522    3.2991   -6.3391 H         1 <0>         0.1164
     44 H10        -6.3244    3.4798   -4.0739 H         1 <0>         0.1815
     45 H11        -4.5847    0.9265   -3.8732 H         1 <0>         0.1725
     46 H12        -3.1533   -0.9064    2.5138 H         1 <0>         0.2062
     47 H13        -5.7007    2.7665    0.3765 H         1 <0>         0.1570
     48 H14        -4.7758    1.6541    6.0091 H         1 <0>         0.1080
     49 H15        -6.1189    4.2930    1.5718 H         1 <0>         0.4789
     50 H16        -8.2928    2.9682    4.1603 H         1 <0>         0.1500
     51 H17        -8.8806    7.7144    2.8314 H         1 <0>         0.1866
     52 H18        -6.9388    6.4340    1.9978 H         1 <0>         0.1607
     53 H19        -4.6409   -3.8203   -1.0052 H         1 <0>         0.0696
     54 H20        -4.5711   -2.2040   -1.7859 H         1 <0>         0.0696
     55 H21        -2.7887   -4.1771   -2.4631 H         1 <0>         0.0703
     56 H22        -2.3034   -2.4485   -2.4090 H         1 <0>         0.0703
     57 H23        -1.6906   -2.5406    1.0890 H         1 <0>         0.0596
     58 H24        -2.7094   -4.0199    1.0966 H         1 <0>         0.0596
     59 H25        -6.0132    3.1884   -0.5592 H         1 <0>         0.4526
     60 H26        -7.6618    2.9136   -6.0120 H         1 <0>         0.4559
     61 H27        -6.0703    3.5259    5.0637 H         1 <0>         0.3466
@<TRIPOS>BOND
     1    1    2 1
     2    1   36 1
     3    1   37 1
     4    1   38 1
     5    2    3 1
     6    2    4 1
     7    2   60 1
     8    3   39 1
     9    3   40 1
    10    3   41 1
    11    4    5 1
    12    4   42 1
    13    4   43 1
    14    5    6 2
    15    5   44 1
    16    6    7 1
    17    6   45 1
    18    7    8 2
    19    7    9 1
    20    8   59 1
    21    9   10 1
    22   10   15 ar
    23   10   11 ar
    24   11   12 ar
    25   11   29 1
    26   12   13 ar
    27   12   46 1
    28   13   19 ar
    29   13   14 ar
    30   14   15 ar
    31   14   16 ar
    32   15   47 1
    33   16   17 ar
    34   16   20 1
    35   17   18 ar
    36   17   61 1
    37   18   19 ar
    38   18   48 1
    39   20   21 1
    40   20   49 1
    41   21   26 ar
    42   21   22 ar
    43   22   23 ar
    44   22   50 1
    45   23   24 ar
    46   23   28 1
    47   24   25 ar
    48   24   27 1
    49   25   26 ar
    50   25   51 1
    51   26   52 1
    52   29   30 1
    53   30   31 1
    54   30   35 1
    55   30   32 1
    56   32   33 1
    57   32   53 1
    58   32   54 1
    59   33   34 1
    60   33   55 1
    61   33   56 1
    62   34   35 1
    63   35   57 1
    64   35   58 1
@<TRIPOS>MOLECULE
[(~{E})-4-[[4-(3-chloro-4-fluoro-anilino)-7-[(3~{S})-tetrahydrofuran-3-yl]oxy-quinazolin-1-ium-6-yl]amino]-4-oxo-but-2-enyl]-dimethyl-ammonium
   61    64     0     0     0
SMALL
USER_CHARGES

@<TRIPOS>ATOM
      1 C1         -7.4188    0.8604   -6.3235 C.3       1 <0>         0.0807
      2 N1         -6.9541    2.2345   -6.5099 N.4       1 <0>        -0.6794
      3 C2         -6.9103    2.5707   -7.9324 C.3       1 <0>         0.0807
      4 C3         -5.6397    2.4150   -5.9024 C.3       1 <0>         0.1352
      5 C4         -5.7409    2.6137   -4.4194 C.2       1 <0>        -0.1629
      6 C5         -5.1622    1.7967   -3.5279 C.2       1 <0>        -0.1594
      7 C6         -5.2942    2.0572   -2.0634 C.2       1 <0>         0.6654
      8 O1         -5.9296    3.0166   -1.6425 O.2       1 <0>        -0.5836
      9 N2         -4.6206    1.0931   -1.3249 N.am      1 <0>        -0.4458
     10 C7         -4.5211    1.0077    0.0654 C.ar      1 <0>         0.0514
     11 C8         -3.8067   -0.0223    0.6671 C.ar      1 <0>         0.1741
     12 C9         -3.7167   -0.0923    2.0604 C.ar      1 <0>        -0.1898
     13 C10        -4.3304    0.8528    2.8788 C.ar      1 <0>         0.0763
     14 C11        -5.0493    1.8882    2.2594 C.ar      1 <0>        -0.2233
     15 C12        -5.1444    1.9655    0.8590 C.ar      1 <0>        -0.1058
     16 C13        -5.6484    2.8133    3.1098 C.ar      1 <0>         0.7755
     17 N3         -5.5709    2.7595    4.4528 N.ar      1 <0>        -0.7345
     18 C14        -4.8583    1.7271    4.9314 C.ar      1 <0>         0.6369
     19 N4         -4.2328    0.7694    4.2172 N.ar      1 <0>        -0.3348
     20 N5         -6.3900    3.8870    2.5575 N.pl3     1 <0>        -0.6378
     21 C15        -7.4938    4.6164    3.0274 C.ar      1 <0>         0.0598
     22 C16        -8.4247    4.0083    3.8697 C.ar      1 <0>        -0.1038
     23 C17        -9.5202    4.7338    4.3377 C.ar      1 <0>        -0.0140
     24 C18        -9.6849    6.0674    3.9635 C.ar      1 <0>         0.1778
     25 C19        -8.7541    6.6754    3.1212 C.ar      1 <0>        -0.1447
     26 C20        -7.6586    5.9499    2.6531 C.ar      1 <0>        -0.0787
     27 F1        -10.7338    6.7771    4.4037 F         1 <0>        -0.0919
     28 Cl1       -10.6673    3.9767    5.3744 Cl        1 <0>        -0.0138
     29 O2         -3.1859   -0.9762   -0.0835 O.3       1 <0>        -0.3534
     30 C21        -3.5949   -2.3246    0.1184 C.3       1 <0>         0.1103
     31 H1         -4.3940   -2.2591    0.8715 H         1 <0>         0.0806
     32 C22        -4.0074   -2.9414   -1.1956 C.3       1 <0>        -0.1229
     33 C23        -2.6699   -3.2975   -1.8133 C.3       1 <0>         0.1246
     34 O3         -1.7744   -3.5828   -0.7302 O.3       1 <0>        -0.3927
     35 C24        -2.3865   -3.1549    0.4988 C.3       1 <0>         0.1079
     36 H2         -7.4455    0.6249   -5.2493 H         1 <0>         0.1107
     37 H3         -6.7321    0.1688   -6.8335 H         1 <0>         0.1107
     38 H4         -8.4282    0.7540   -6.7474 H         1 <0>         0.1107
     39 H5         -6.5592    3.6061   -8.0538 H         1 <0>         0.1107
     40 H6         -7.9174    2.4721   -8.3636 H         1 <0>         0.1107
     41 H7         -6.2213    1.8868   -8.4497 H         1 <0>         0.1107
     42 H8         -5.0225    1.5245   -6.0925 H         1 <0>         0.1175
     43 H9         -5.1522    3.2991   -6.3391 H         1 <0>         0.1175
     44 H10        -6.3244    3.4798   -4.0739 H         1 <0>         0.1841
     45 H11        -4.5847    0.9265   -3.8732 H         1 <0>         0.1539
     46 H12        -4.0868    0.2801   -1.8388 H         1 <0>         0.3510
     47 H13        -3.1533   -0.9064    2.5138 H         1 <0>         0.1796
     48 H14        -5.7007    2.7665    0.3765 H         1 <0>         0.1850
     49 H15        -4.7758    1.6541    6.0091 H         1 <0>         0.1032
     50 H16        -6.1189    4.2930    1.5718 H         1 <0>         0.4751
     51 H17        -8.2928    2.9682    4.1603 H         1 <0>         0.1619
     52 H18        -8.8806    7.7144    2.8314 H         1 <0>         0.1811
     53 H19        -6.9388    6.4340    1.9978 H         1 <0>         0.1571
     54 H20        -4.6409   -3.8203   -1.0052 H         1 <0>         0.0691
     55 H21        -4.5711   -2.2040   -1.7859 H         1 <0>         0.0691
     56 H22        -2.7887   -4.1771   -2.4631 H         1 <0>         0.0620
     57 H23        -2.3034   -2.4485   -2.4090 H         1 <0>         0.0620
     58 H24        -1.6906   -2.5406    1.0890 H         1 <0>         0.0733
     59 H25        -2.7094   -4.0199    1.0966 H         1 <0>         0.0733
     60 H26        -7.6618    2.9136   -6.0120 H         1 <0>         0.4551
     61 H27        -3.6634   -0.0518    4.6770 H         1 <0>         0.3404
@<TRIPOS>BOND
     1    1    2 1
     2    1   36 1
     3    1   37 1
     4    1   38 1
     5    2    3 1
     6    2    4 1
     7    2   60 1
     8    3   39 1
     9    3   40 1
    10    3   41 1
    11    4    5 1
    12    4   42 1
    13    4   43 1
    14    5    6 2
    15    5   44 1
    16    6    7 1
    17    6   45 1
    18    7    8 2
    19    7    9 am
    20    9   10 1
    21    9   46 1
    22   10   15 ar
    23   10   11 ar
    24   11   12 ar
    25   11   29 1
    26   12   13 ar
    27   12   47 1
    28   13   19 ar
    29   13   14 ar
    30   14   15 ar
    31   14   16 ar
    32   15   48 1
    33   16   17 ar
    34   16   20 1
    35   17   18 ar
    36   18   19 ar
    37   18   49 1
    38   19   61 1
    39   20   21 1
    40   20   50 1
    41   21   26 ar
    42   21   22 ar
    43   22   23 ar
    44   22   51 1
    45   23   24 ar
    46   23   28 1
    47   24   25 ar
    48   24   27 1
    49   25   26 ar
    50   25   52 1
    51   26   53 1
    52   29   30 1
    53   30   31 1
    54   30   35 1
    55   30   32 1
    56   32   33 1
    57   32   54 1
    58   32   55 1
    59   33   34 1
    60   33   56 1
    61   33   57 1
    62   34   35 1
    63   35   58 1
    64   35   59 1
@<TRIPOS>MOLECULE
(~{E})-~{N}-[4-(3-chloro-4-fluoro-anilino)-7-[(3~{S})-tetrahydrofuran-3-yl]oxy-quinazolin-1-ium-6-yl]-4-(dimethylamino)but-2-enamide
   60    63     0     0     0
SMALL
USER_CHARGES

@<TRIPOS>ATOM
      1 C1         -7.4188    0.8604   -6.3235 C.3       1 <0>         0.1412
      2 N1         -6.9541    2.2345   -6.5099 N.3       1 <0>        -0.7124
      3 C2         -6.9103    2.5707   -7.9324 C.3       1 <0>         0.1412
      4 C3         -5.6397    2.4150   -5.9024 C.3       1 <0>         0.1648
      5 C4         -5.7409    2.6137   -4.4194 C.2       1 <0>        -0.0308
      6 C5         -5.1622    1.7967   -3.5279 C.2       1 <0>        -0.2787
      7 C6         -5.2942    2.0572   -2.0634 C.2       1 <0>         0.6819
      8 O1         -5.9296    3.0166   -1.6425 O.2       1 <0>        -0.5932
      9 N2         -4.6206    1.0931   -1.3249 N.am      1 <0>        -0.4708
     10 C7         -4.5211    1.0077    0.0654 C.ar      1 <0>         0.0856
     11 C8         -3.8067   -0.0223    0.6671 C.ar      1 <0>         0.1585
     12 C9         -3.7167   -0.0923    2.0604 C.ar      1 <0>        -0.1872
     13 C10        -4.3304    0.8528    2.8788 C.ar      1 <0>         0.0477
     14 C11        -5.0493    1.8882    2.2594 C.ar      1 <0>        -0.2113
     15 C12        -5.1444    1.9655    0.8590 C.ar      1 <0>        -0.1124
     16 C13        -5.6484    2.8133    3.1098 C.ar      1 <0>         0.7825
     17 N3         -5.5709    2.7595    4.4528 N.ar      1 <0>        -0.7465
     18 C14        -4.8583    1.7271    4.9314 C.ar      1 <0>         0.6307
     19 N4         -4.2328    0.7694    4.2172 N.ar      1 <0>        -0.3273
     20 N5         -6.3900    3.8870    2.5575 N.pl3     1 <0>        -0.6502
     21 C15        -7.4938    4.6164    3.0274 C.ar      1 <0>         0.0589
     22 C16        -8.4247    4.0083    3.8697 C.ar      1 <0>        -0.0633
     23 C17        -9.5202    4.7338    4.3377 C.ar      1 <0>        -0.0233
     24 C18        -9.6849    6.0674    3.9635 C.ar      1 <0>         0.1711
     25 C19        -8.7541    6.6754    3.1212 C.ar      1 <0>        -0.1444
     26 C20        -7.6586    5.9499    2.6531 C.ar      1 <0>        -0.1066
     27 F1        -10.7338    6.7771    4.4037 F         1 <0>        -0.0990
     28 Cl1       -10.6673    3.9767    5.3744 Cl        1 <0>        -0.0253
     29 O2         -3.1859   -0.9762   -0.0835 O.3       1 <0>        -0.3448
     30 C21        -3.5949   -2.3246    0.1184 C.3       1 <0>         0.1121
     31 H1         -4.3940   -2.2591    0.8715 H         1 <0>         0.0744
     32 C22        -4.0074   -2.9414   -1.1956 C.3       1 <0>        -0.1223
     33 C23        -2.6699   -3.2975   -1.8133 C.3       1 <0>         0.1250
     34 O3         -1.7744   -3.5828   -0.7302 O.3       1 <0>        -0.4046
     35 C24        -2.3865   -3.1549    0.4988 C.3       1 <0>         0.1105
     36 H2         -7.4455    0.6249   -5.2493 H         1 <0>         0.0394
     37 H3         -6.7321    0.1688   -6.8335 H         1 <0>         0.0394
     38 H4         -8.4282    0.7540   -6.7474 H         1 <0>         0.0394
     39 H5         -6.5592    3.6061   -8.0538 H         1 <0>         0.0394
     40 H6         -7.9174    2.4721   -8.3636 H         1 <0>         0.0394
     41 H7         -6.2213    1.8868   -8.4497 H         1 <0>         0.0394
     42 H8         -5.0225    1.5245   -6.0925 H         1 <0>         0.0535
     43 H9         -5.1522    3.2991   -6.3391 H         1 <0>         0.0535
     44 H10        -6.3244    3.4798   -4.0739 H         1 <0>         0.1589
     45 H11        -4.5847    0.9265   -3.8732 H         1 <0>         0.1533
     46 H12        -4.0868    0.2801   -1.8388 H         1 <0>         0.3487
     47 H13        -3.1533   -0.9064    2.5138 H         1 <0>         0.1702
     48 H14        -5.7007    2.7665    0.3765 H         1 <0>         0.1821
     49 H15        -4.7758    1.6541    6.0091 H         1 <0>         0.0931
     50 H16        -6.1189    4.2930    1.5718 H         1 <0>         0.4786
     51 H17        -8.2928    2.9682    4.1603 H         1 <0>         0.1734
     52 H18        -8.8806    7.7144    2.8314 H         1 <0>         0.1756
     53 H19        -6.9388    6.4340    1.9978 H         1 <0>         0.1525
     54 H20        -4.6409   -3.8203   -1.0052 H         1 <0>         0.0728
     55 H21        -4.5711   -2.2040   -1.7859 H         1 <0>         0.0728
     56 H22        -2.7887   -4.1771   -2.4631 H         1 <0>         0.0632
     57 H23        -2.3034   -2.4485   -2.4090 H         1 <0>         0.0632
     58 H24        -1.6906   -2.5406    1.0890 H         1 <0>         0.0661
     59 H25        -2.7094   -4.0199    1.0966 H         1 <0>         0.0661
     60 H26        -3.6634   -0.0518    4.6770 H         1 <0>         0.3340
@<TRIPOS>BOND
     1    1    2 1
     2    1   36 1
     3    1   37 1
     4    1   38 1
     5    2    3 1
     6    2    4 1
     7    3   39 1
     8    3   40 1
     9    3   41 1
    10    4    5 1
    11    4   42 1
    12    4   43 1
    13    5    6 2
    14    5   44 1
    15    6    7 1
    16    6   45 1
    17    7    8 2
    18    7    9 am
    19    9   10 1
    20    9   46 1
    21   10   15 ar
    22   10   11 ar
    23   11   12 ar
    24   11   29 1
    25   12   13 ar
    26   12   47 1
    27   13   19 ar
    28   13   14 ar
    29   14   15 ar
    30   14   16 ar
    31   15   48 1
    32   16   17 ar
    33   16   20 1
    34   17   18 ar
    35   18   19 ar
    36   18   49 1
    37   19   60 1
    38   20   21 1
    39   20   50 1
    40   21   26 ar
    41   21   22 ar
    42   22   23 ar
    43   22   51 1
    44   23   24 ar
    45   23   28 1
    46   24   25 ar
    47   24   27 1
    48   25   26 ar
    49   25   52 1
    50   26   53 1
    51   29   30 1
    52   30   31 1
    53   30   35 1
    54   30   32 1
    55   32   33 1
    56   32   54 1
    57   32   55 1
    58   33   34 1
    59   33   56 1
    60   33   57 1
    61   34   35 1
    62   35   58 1
    63   35   59 1
@<TRIPOS>MOLECULE
(~{E},1~{Z})-~{N}-[4-(3-chloro-4-fluoro-anilino)-7-[(3~{S})-tetrahydrofuran-3-yl]oxy-quinazolin-6-yl]-4-(dimethylammonio)but-2-enimidate
   59    62     0     0     0
SMALL
USER_CHARGES

@<TRIPOS>ATOM
      1 C1         -7.4188    0.8604   -6.3235 C.3       1 <0>         0.0832
      2 N1         -6.9541    2.2345   -6.5099 N.4       1 <0>        -0.6883
      3 C2         -6.9103    2.5707   -7.9324 C.3       1 <0>         0.0832
      4 C3         -5.6397    2.4150   -5.9024 C.3       1 <0>         0.1735
      5 C4         -5.7409    2.6137   -4.4194 C.2       1 <0>        -0.3242
      6 C5         -5.1622    1.7967   -3.5279 C.2       1 <0>        -0.0923
      7 C6         -5.2942    2.0572   -2.0634 C.2       1 <0>         0.9363
      8 O1         -5.9296    3.0166   -1.6425 O.3       1 <0>        -0.8014
      9 N2         -4.6206    1.0931   -1.3249 N.2       1 <0>        -0.8658
     10 C7         -4.5211    1.0077    0.0654 C.ar      1 <0>         0.2793
     11 C8         -3.8067   -0.0223    0.6671 C.ar      1 <0>         0.0938
     12 C9         -3.7167   -0.0923    2.0604 C.ar      1 <0>        -0.2170
     13 C10        -4.3304    0.8528    2.8788 C.ar      1 <0>         0.3956
     14 C11        -5.0493    1.8882    2.2594 C.ar      1 <0>        -0.2411
     15 C12        -5.1444    1.9655    0.8590 C.ar      1 <0>        -0.1655
     16 C13        -5.6484    2.8133    3.1098 C.ar      1 <0>         0.6806
     17 N3         -5.5709    2.7595    4.4528 N.ar      1 <0>        -0.7580
     18 C14        -4.8583    1.7271    4.9314 C.ar      1 <0>         0.6325
     19 N4         -4.2328    0.7694    4.2172 N.ar      1 <0>        -0.6949
     20 N5         -6.3900    3.8870    2.5575 N.pl3     1 <0>        -0.7546
     21 C15        -7.4938    4.6164    3.0274 C.ar      1 <0>         0.1849
     22 C16        -8.4247    4.0083    3.8697 C.ar      1 <0>        -0.1282
     23 C17        -9.5202    4.7338    4.3377 C.ar      1 <0>         0.0084
     24 C18        -9.6849    6.0674    3.9635 C.ar      1 <0>         0.0885
     25 C19        -8.7541    6.6754    3.1212 C.ar      1 <0>        -0.1283
     26 C20        -7.6586    5.9499    2.6531 C.ar      1 <0>        -0.1707
     27 F1        -10.7338    6.7771    4.4037 F         1 <0>        -0.1347
     28 Cl1       -10.6673    3.9767    5.3744 Cl        1 <0>        -0.0759
     29 O2         -3.1859   -0.9762   -0.0835 O.3       1 <0>        -0.3255
     30 C21        -3.5949   -2.3246    0.1184 C.3       1 <0>         0.1175
     31 H1         -4.3940   -2.2591    0.8715 H         1 <0>         0.0739
     32 C22        -4.0074   -2.9414   -1.1956 C.3       1 <0>        -0.1276
     33 C23        -2.6699   -3.2975   -1.8133 C.3       1 <0>         0.1297
     34 O3         -1.7744   -3.5828   -0.7302 O.3       1 <0>        -0.4268
     35 C24        -2.3865   -3.1549    0.4988 C.3       1 <0>         0.1063
     36 H2         -7.4455    0.6249   -5.2493 H         1 <0>         0.0995
     37 H3         -6.7321    0.1688   -6.8335 H         1 <0>         0.0995
     38 H4         -8.4282    0.7540   -6.7474 H         1 <0>         0.0995
     39 H5         -6.5592    3.6061   -8.0538 H         1 <0>         0.0995
     40 H6         -7.9174    2.4721   -8.3636 H         1 <0>         0.0995
     41 H7         -6.2213    1.8868   -8.4497 H         1 <0>         0.0995
     42 H8         -5.0225    1.5245   -6.0925 H         1 <0>         0.0846
     43 H9         -5.1522    3.2991   -6.3391 H         1 <0>         0.0846
     44 H10        -6.3244    3.4798   -4.0739 H         1 <0>         0.1675
     45 H11        -4.5847    0.9265   -3.8732 H         1 <0>         0.1229
     46 H12        -3.1533   -0.9064    2.5138 H         1 <0>         0.1459
     47 H13        -5.7007    2.7665    0.3765 H         1 <0>         0.1339
     48 H14        -4.7758    1.6541    6.0091 H         1 <0>         0.0455
     49 H15        -6.1189    4.2930    1.5718 H         1 <0>         0.4470
     50 H16        -8.2928    2.9682    4.1603 H         1 <0>         0.1684
     51 H17        -8.8806    7.7144    2.8314 H         1 <0>         0.1481
     52 H18        -6.9388    6.4340    1.9978 H         1 <0>         0.1387
     53 H19        -4.6409   -3.8203   -1.0052 H         1 <0>         0.0651
     54 H20        -4.5711   -2.2040   -1.7859 H         1 <0>         0.0651
     55 H21        -2.7887   -4.1771   -2.4631 H         1 <0>         0.0352
     56 H22        -2.3034   -2.4485   -2.4090 H         1 <0>         0.0352
     57 H23        -1.6906   -2.5406    1.0890 H         1 <0>         0.0620
     58 H24        -2.7094   -4.0199    1.0966 H         1 <0>         0.0620
     59 H25        -7.6618    2.9136   -6.0120 H         1 <0>         0.4447
@<TRIPOS>BOND
     1    1    2 1
     2    1   36 1
     3    1   37 1
     4    1   38 1
     5    2    3 1
     6    2    4 1
     7    2   59 1
     8    3   39 1
     9    3   40 1
    10    3   41 1
    11    4    5 1
    12    4   42 1
    13    4   43 1
    14    5    6 2
    15    5   44 1
    16    6    7 1
    17    6   45 1
    18    7    8 1
    19    7    9 2
    20    9   10 1
    21   10   15 ar
    22   10   11 ar
    23   11   12 ar
    24   11   29 1
    25   12   13 ar
    26   12   46 1
    27   13   19 ar
    28   13   14 ar
    29   14   15 ar
    30   14   16 ar
    31   15   47 1
    32   16   17 ar
    33   16   20 1
    34   17   18 ar
    35   18   19 ar
    36   18   48 1
    37   20   21 1
    38   20   49 1
    39   21   26 ar
    40   21   22 ar
    41   22   23 ar
    42   22   50 1
    43   23   24 ar
    44   23   28 1
    45   24   25 ar
    46   24   27 1
    47   25   26 ar
    48   25   51 1
    49   26   52 1
    50   29   30 1
    51   30   31 1
    52   30   35 1
    53   30   32 1
    54   32   33 1
    55   32   53 1
    56   32   54 1
    57   33   34 1
    58   33   55 1
    59   33   56 1
    60   34   35 1
    61   35   57 1
    62   35   58 1
