@<TRIPOS>MOLECULE
(~{E})-~{N}-[4-(3-chloro-4-fluoro-anilino)-7-[(3~{S})-tetrahydrofuran-3-yl]oxy-quinazolin-6-yl]-4-(dimethylamino)but-2-enamide
   59    62     0     0     0
SMALL
USER_CHARGES

@<TRIPOS>ATOM
      1 C1         -7.4202    0.8609   -6.3224 C.3       1 AFA         0.1417
      2 N1         -6.9556    2.2350   -6.5089 N.3       1 AFA        -0.7103
      3 C2         -6.9127    2.5714   -7.9314 C.3       1 AFA         0.1417
      4 C3         -5.6408    2.4154   -5.9022 C.3       1 AFA         0.1681
      5 C4         -5.7413    2.6139   -4.4191 C.2       1 AFA        -0.0516
      6 C5         -5.1623    1.7969   -3.5279 C.2       1 AFA        -0.2600
      7 C6         -5.2942    2.0572   -2.0634 C.2       1 AFA         0.6718
      8 O1         -5.9298    3.0164   -1.6424 O.2       1 AFA        -0.6061
      9 N2         -4.6206    1.0931   -1.3249 N.am      1 AFA        -0.4600
     10 C7         -4.5211    1.0077    0.0654 C.ar      1 AFA         0.0576
     11 C8         -3.8067   -0.0223    0.6671 C.ar      1 AFA         0.0904
     12 C9         -3.7167   -0.0923    2.0604 C.ar      1 AFA        -0.1976
     13 C10        -4.3304    0.8528    2.8788 C.ar      1 AFA         0.4272
     14 C11        -5.0493    1.8882    2.2594 C.ar      1 AFA        -0.2754
     15 C12        -5.1444    1.9655    0.8590 C.ar      1 AFA        -0.1321
     16 C13        -5.6484    2.8133    3.1098 C.ar      1 AFA         0.7118
     17 N3         -5.5709    2.7595    4.4528 N.ar      1 AFA        -0.7569
     18 C14        -4.8583    1.7271    4.9314 C.ar      1 AFA         0.6633
     19 N4         -4.2328    0.7694    4.2172 N.ar      1 AFA        -0.7068
     20 N5         -6.3900    3.8870    2.5575 N.pl3     1 AFA        -0.7606
     21 C15        -7.4938    4.6164    3.0274 C.ar      1 AFA         0.1696
     22 C16        -8.4247    4.0083    3.8697 C.ar      1 AFA        -0.1538
     23 C17        -9.5202    4.7338    4.3377 C.ar      1 AFA         0.0049
     24 C18        -9.6849    6.0674    3.9635 C.ar      1 AFA         0.1073
     25 C19        -8.7541    6.6754    3.1212 C.ar      1 AFA        -0.1339
     26 C20        -7.6586    5.9499    2.6531 C.ar      1 AFA        -0.1188
     27 F1        -10.7337    6.7771    4.4037 F         1 AFA        -0.1280
     28 Cl1       -10.6673    3.9767    5.3744 Cl        1 AFA        -0.0682
     29 O2         -3.1859   -0.9762   -0.0835 O.3       1 AFA        -0.3518
     30 C21        -3.5949   -2.3246    0.1184 C.3       1 AFA         0.1117
     31 H1         -4.3757   -2.3359    0.8832 H         1 AFA         0.0780
     32 C22        -4.0074   -2.9414   -1.1956 C.3       1 AFA        -0.1231
     33 C23        -2.6699   -3.2975   -1.8133 C.3       1 AFA         0.1280
     34 O3         -1.7744   -3.5828   -0.7302 O.3       1 AFA        -0.4194
     35 C24        -2.3865   -3.1549    0.4988 C.3       1 AFA         0.1092
     36 H2         -7.4501    0.6156   -5.2576 H         1 AFA         0.0365
     37 H3         -6.7462    0.1624   -6.8257 H         1 AFA         0.0365
     38 H4         -8.4238    0.7414   -6.7393 H         1 AFA         0.0365
     39 H5         -6.5656    3.5934   -8.0396 H         1 AFA         0.0365
     40 H6         -7.9096    2.4716   -8.3478 H         1 AFA         0.0365
     41 H7         -6.2320    1.8926   -8.4341 H         1 AFA         0.0365
     42 H8         -5.0058    1.5583   -6.1528 H         1 AFA         0.0456
     43 H9         -5.1719    3.3044   -6.3383 H         1 AFA         0.0456
     44 H10        -6.3065    3.4809   -4.0851 H         1 AFA         0.1650
     45 H11        -4.5907    0.9349   -3.8561 H         1 AFA         0.1351
     46 H12        -4.1458    0.3667   -1.8571 H         1 AFA         0.3333
     47 H13        -3.1533   -0.9064    2.5138 H         1 AFA         0.1630
     48 H14        -5.7007    2.7665    0.3765 H         1 AFA         0.1803
     49 H15        -4.7758    1.6541    6.0091 H         1 AFA         0.0550
     50 H16        -6.0538    4.1792    1.6476 H         1 AFA         0.4610
     51 H17        -8.2928    2.9682    4.1603 H         1 AFA         0.1540
     52 H18        -8.8806    7.7144    2.8315 H         1 AFA         0.1552
     53 H19        -6.9388    6.4340    1.9978 H         1 AFA         0.1586
     54 H20        -4.5808   -3.8569   -1.0105 H         1 AFA         0.0640
     55 H21        -4.5912   -2.2818   -1.8431 H         1 AFA         0.0640
     56 H22        -2.7328   -4.1639   -2.4776 H         1 AFA         0.0523
     57 H23        -2.2551   -2.4558   -2.3781 H         1 AFA         0.0523
     58 H24        -2.6837   -4.0579    1.0418 H         1 AFA         0.0644
     59 H25        -1.6471   -2.6049    1.0876 H         1 AFA         0.0644
@<TRIPOS>BOND
     1    1    2 1
     2    2    3 1
     3    2    4 1
     4    4    5 1
     5    5    6 2
     6    6    7 1
     7    7    8 2
     8    7    9 am
     9    9   10 1
    10   10   15 ar
    11   10   11 ar
    12   11   12 ar
    13   12   13 ar
    14   13   19 ar
    15   13   14 ar
    16   14   15 ar
    17   14   16 ar
    18   16   17 ar
    19   17   18 ar
    20   18   19 ar
    21   16   20 1
    22   20   21 1
    23   21   26 ar
    24   21   22 ar
    25   22   23 ar
    26   23   24 ar
    27   24   25 ar
    28   25   26 ar
    29   24   27 1
    30   23   28 1
    31   11   29 1
    32   29   30 1
    33   30   31 1
    34   30   35 1
    35   30   32 1
    36   32   33 1
    37   33   34 1
    38   34   35 1
    39    1   36 1
    40    1   37 1
    41    1   38 1
    42    3   39 1
    43    3   40 1
    44    3   41 1
    45    4   42 1
    46    4   43 1
    47    5   44 1
    48    6   45 1
    49    9   46 1
    50   12   47 1
    51   15   48 1
    52   18   49 1
    53   20   50 1
    54   22   51 1
    55   25   52 1
    56   26   53 1
    57   32   54 1
    58   32   55 1
    59   33   56 1
    60   33   57 1
    61   35   58 1
    62   35   59 1
