@<TRIPOS>MOLECULE
DB8
   67    70     0     0     0
SMALL
NO_CHARGES

@<TRIPOS>ATOM
      1 C1         -2.4390   15.8230  -52.6150 C.3       1 DB8601      0.0000
      2 O1         -0.7230   17.7490  -43.8250 O.3       1 DB8601      0.0000
      3 C2         -0.2760   10.9670  -54.9260 C.3       1 DB8601      0.0000
      4 N1         -2.8950   14.2390  -44.0700 N.1       1 DB8601      0.0000
      5 Cl1        -3.2890   18.8070  -42.4990 Cl        1 DB8601      0.0000
      6 Cl2        -5.8900   16.3750  -46.8020 Cl        1 DB8601      0.0000
      7 C3         -2.5320   13.8910  -45.0810 C.1       1 DB8601      0.0000
      8 C4         -1.3020   12.1440  -46.5160 C.ar      1 DB8601      0.0000
      9 C5         -4.4780   17.5620  -44.6880 C.ar      1 DB8601      0.0000
     10 C6         -1.8260   16.6460  -45.7600 C.ar      1 DB8601      0.0000
     11 C7         -0.5380   11.8080  -50.3050 C.ar      1 DB8601      0.0000
     12 C8         -2.0290   14.4420  -50.2560 C.ar      1 DB8601      0.0000
     13 C9          0.7430   10.3250  -53.9950 C.3       1 DB8601      0.0000
     14 C10         0.7360   11.0740  -52.6630 C.3       1 DB8601      0.0000
     15 C11        -0.7980    7.5090  -59.0390 C.3       1 DB8601      0.0000
     16 C12        -1.3080   10.3190  -57.2360 C.3       1 DB8601      0.0000
     17 C13         0.3100    8.9150  -56.1780 C.3       1 DB8601      0.0000
     18 C14        -0.7130    9.9490  -58.6050 C.3       1 DB8601      0.0000
     19 C15         0.9210    8.5590  -57.4940 C.3       1 DB8601      0.0000
     20 N2         -0.8210   11.6400  -47.7690 N.ar      1 DB8601      0.0000
     21 N3         -3.0370   15.5280  -47.7040 N.pl3     1 DB8601      0.0000
     22 O2         -1.7680   14.6040  -52.6880 O.3       1 DB8601      0.0000
     23 O3         -0.2860   12.0260  -52.7280 O.3       1 DB8601      0.0000
     24 C16        -1.8860   17.4360  -44.4920 C.ar      1 DB8601      0.0000
     25 C17        -3.2170   17.8930  -43.9630 C.ar      1 DB8601      0.0000
     26 C18        -4.4280   16.7700  -45.9530 C.ar      1 DB8601      0.0000
     27 C19        -2.0470   13.4380  -46.4190 C.ar      1 DB8601      0.0000
     28 C20        -3.0980   16.3140  -46.4880 C.ar      1 DB8601      0.0000
     29 C21        -1.5230   13.8770  -51.5450 C.ar      1 DB8601      0.0000
     30 C22        -0.7800   12.5830  -51.5560 C.ar      1 DB8601      0.0000
     31 C23        -2.3230   14.2440  -47.6770 C.ar      1 DB8601      0.0000
     32 C24        -1.0450   12.3590  -48.9920 C.ar      1 DB8601      0.0000
     33 C25        -1.7920   13.6770  -48.9890 C.ar      1 DB8601      0.0000
     34 N4         -0.2430   10.2440  -56.2370 N.4       1 DB8601      0.0000
     35 N5         -0.0790    8.6600  -58.5140 N.4       1 DB8601      0.0000
     36 C26         0.3580   16.8780  -43.8610 C.3       1 DB8601      0.0000
     37 H1         -2.5380   16.2487  -53.6245 H         1 DB8601      0.0000
     38 H2         -3.4387   15.6659  -52.1838 H         1 DB8601      0.0000
     39 H3         -1.8702   16.5170  -51.9787 H         1 DB8601      0.0000
     40 H4         -1.2810   10.8908  -54.4854 H         1 DB8601      0.0000
     41 H5         -0.0225   12.0263  -55.0799 H         1 DB8601      0.0000
     42 H6         -1.1215   11.5736  -45.6168 H         1 DB8601      0.0000
     43 H7         -5.4281   17.8955  -44.2976 H         1 DB8601      0.0000
     44 H8         -0.8745   16.3161  -46.1502 H         1 DB8601      0.0000
     45 H9         -0.0085   10.8673  -50.3368 H         1 DB8601      0.0000
     46 H10        -2.5559   15.3846  -50.2384 H         1 DB8601      0.0000
     47 H11         0.4775    9.2708  -53.8274 H         1 DB8601      0.0000
     48 H12         1.7443   10.3836  -54.4465 H         1 DB8601      0.0000
     49 H13         0.5454   10.3725  -51.8374 H         1 DB8601      0.0000
     50 H14         1.7045   11.5712  -52.5054 H         1 DB8601      0.0000
     51 H15        -0.1914    6.6021  -58.8992 H         1 DB8601      0.0000
     52 H16        -1.7525    7.3977  -58.5036 H         1 DB8601      0.0000
     53 H17        -0.9941    7.6572  -60.1112 H         1 DB8601      0.0000
     54 H18        -1.7140   11.3407  -57.2708 H         1 DB8601      0.0000
     55 H19        -2.1114    9.6138  -56.9768 H         1 DB8601      0.0000
     56 H20        -0.4895    8.1976  -55.9412 H         1 DB8601      0.0000
     57 H21         1.0817    8.8756  -55.3951 H         1 DB8601      0.0000
     58 H22        -1.5152    9.9119  -59.3567 H         1 DB8601      0.0000
     59 H23         0.0305   10.7045  -58.8991 H         1 DB8601      0.0000
     60 H24         1.7465    9.2511  -57.7168 H         1 DB8601      0.0000
     61 H25         1.3061    7.5293  -57.4555 H         1 DB8601      0.0000
     62 H26        -3.4718   15.8527  -48.5440 H         1 DB8601      0.0000
     63 H27         0.4907   10.7381  -56.7034 H         1 DB8601      0.0000
     64 H28         0.5449    8.7757  -59.2869 H         1 DB8601      0.0000
     65 H29         1.1879   17.2983  -43.2739 H         1 DB8601      0.0000
     66 H30         0.0617   15.9082  -43.4347 H         1 DB8601      0.0000
     67 H31         0.6807   16.7372  -44.9031 H         1 DB8601      0.0000
@<TRIPOS>BOND
     1    1   22 1
     2    2   24 1
     3    2   36 1
     4    3   13 1
     5    3   34 1
     6    4    7 3
     7    5   25 1
     8    6   26 1
     9    7   27 1
    10    8   20 ar
    11    8   27 ar
    12    9   25 ar
    13    9   26 ar
    14   10   24 ar
    15   10   28 ar
    16   11   30 ar
    17   11   32 ar
    18   12   29 ar
    19   12   33 ar
    20   13   14 1
    21   14   23 1
    22   15   35 1
    23   16   18 1
    24   16   34 1
    25   17   19 1
    26   17   34 1
    27   18   35 1
    28   19   35 1
    29   20   32 ar
    30   21   28 1
    31   21   31 1
    32   22   29 1
    33   23   30 1
    34   24   25 ar
    35   26   28 ar
    36   27   31 ar
    37   29   30 ar
    38   31   33 ar
    39   32   33 ar
    40    1   37 1
    41    1   38 1
    42    1   39 1
    43    3   40 1
    44    3   41 1
    45    8   42 1
    46    9   43 1
    47   10   44 1
    48   11   45 1
    49   12   46 1
    50   13   47 1
    51   13   48 1
    52   14   49 1
    53   14   50 1
    54   15   51 1
    55   15   52 1
    56   15   53 1
    57   16   54 1
    58   16   55 1
    59   17   56 1
    60   17   57 1
    61   18   58 1
    62   18   59 1
    63   19   60 1
    64   19   61 1
    65   21   62 1
    66   34   63 1
    67   35   64 1
    68   36   65 1
    69   36   66 1
    70   36   67 1
