@<TRIPOS>MOLECULE
4-[3-chloro-4-(cyclopropylcarbamoylamino)phenoxy]-7-methoxy-quinoline-6-carboxamide
   49    52     0     0     0
SMALL
USER_CHARGES

@<TRIPOS>ATOM
      1 C1          6.1703   -8.5146  -13.2906 C.3       1 LEN         0.1147
      2 O1          6.8171   -7.2560  -13.1425 O.3       1 LEN        -0.3540
      3 C2          6.2282   -6.3586  -12.3026 C.ar      1 LEN         0.1355
      4 C3          6.5870   -6.3565  -10.9523 C.ar      1 LEN        -0.1969
      5 C4          6.0194   -5.4633  -10.0477 C.ar      1 LEN         0.4322
      6 N1          6.3880   -5.4884   -8.7529 N.ar      1 LEN        -0.6784
      7 C5          5.8122   -4.6037   -7.9069 C.ar      1 LEN         0.4499
      8 C6          4.8669   -3.6725   -8.2863 C.ar      1 LEN        -0.3322
      9 C7          4.4891   -3.6492   -9.6211 C.ar      1 LEN         0.1747
     10 C8          5.0609   -4.5483  -10.5313 C.ar      1 LEN        -0.1742
     11 C9          4.6999   -4.5502  -11.8894 C.ar      1 LEN        -0.0444
     12 C10         5.2836   -5.4544  -12.7720 C.ar      1 LEN        -0.1570
     13 C11         4.8928   -5.4366  -14.1747 C.2       1 LEN         0.6841
     14 O2          3.9375   -6.1152  -14.5883 O.2       1 LEN        -0.6052
     15 N2          5.6151   -4.6171  -15.0359 N.am      1 LEN        -0.6635
     16 O3          3.5553   -2.7338  -10.0113 O.3       1 LEN        -0.2394
     17 C12         3.8534   -1.3961   -9.8253 C.ar      1 LEN         0.0406
     18 C13         5.1123   -0.9068  -10.1737 C.ar      1 LEN        -0.0911
     19 C14         5.4124    0.4426   -9.9869 C.ar      1 LEN        -0.0474
     20 C15         4.4535    1.3026   -9.4516 C.ar      1 LEN         0.1092
     21 C16         3.1946    0.8133   -9.1031 C.ar      1 LEN        -0.1502
     22 C17         2.8946   -0.5360   -9.2899 C.ar      1 LEN        -0.0944
     23 N3          4.7221    2.6599   -9.2510 N.am      1 LEN        -0.4797
     24 C18         3.8713    3.6510   -8.7260 C.2       1 LEN         0.7777
     25 O4          2.7154    3.4842   -8.3443 O.2       1 LEN        -0.6083
     26 N4          4.5174    4.8909   -8.6876 N.am      1 LEN        -0.5306
     27 C19         3.8864    6.0939   -8.1955 C.3       1 LEN         0.0508
     28 C20         3.8766    6.3979   -6.7359 C.3       1 LEN        -0.1450
     29 C21         4.7128    7.2190   -7.6719 C.3       1 LEN        -0.1450
     30 Cl1         6.9846    1.0061  -10.4288 Cl        1 LEN        -0.0949
     31 H1          6.7387   -9.1378  -13.9853 H         1 LEN         0.0494
     32 H2          5.1559   -8.3618  -13.6676 H         1 LEN         0.0494
     33 H3          6.1244   -9.0075  -12.3165 H         1 LEN         0.0494
     34 H4          7.3292   -7.0725  -10.6023 H         1 LEN         0.1679
     35 H5          6.1464   -4.6687   -6.8766 H         1 LEN         0.0266
     36 H6          4.4391   -2.9873   -7.5631 H         1 LEN         0.1607
     37 H7          3.9607   -3.8456  -12.2663 H         1 LEN         0.1622
     38 H8          6.3795   -4.0297  -14.7208 H         1 LEN         0.3147
     39 H9          5.3809   -4.5487  -16.0210 H         1 LEN         0.3147
     40 H10         5.8530   -1.5860  -10.5896 H         1 LEN         0.1658
     41 H11         2.4383    1.4728   -8.6848 H         1 LEN         0.1899
     42 H12         1.9117   -0.9113   -9.0186 H         1 LEN         0.1600
     43 H13         5.6560    2.9860   -9.5163 H         1 LEN         0.3266
     44 H14         5.4745    4.9482   -9.0210 H         1 LEN         0.3014
     45 H15         3.0097    6.3290   -8.7719 H         1 LEN         0.1114
     46 H16         3.0052    6.8682   -6.2969 H         1 LEN         0.0782
     47 H17         4.3866    5.6997   -6.0836 H         1 LEN         0.0782
     48 H18         4.4015    8.2389   -7.8617 H         1 LEN         0.0782
     49 H19         5.7858    7.0736   -7.6506 H         1 LEN         0.0782
@<TRIPOS>BOND
     1    1    2 1
     2    2    3 1
     3    3   12 ar
     4    3    4 ar
     5    4    5 ar
     6    5   10 ar
     7    5    6 ar
     8    6    7 ar
     9    7    8 ar
    10    8    9 ar
    11    9   10 ar
    12   10   11 ar
    13   11   12 ar
    14   12   13 1
    15   13   14 2
    16   13   15 am
    17    9   16 1
    18   16   17 1
    19   17   22 ar
    20   17   18 ar
    21   18   19 ar
    22   19   20 ar
    23   20   21 ar
    24   21   22 ar
    25   20   23 1
    26   23   24 am
    27   24   25 2
    28   24   26 am
    29   26   27 1
    30   27   29 1
    31   27   28 1
    32   28   29 1
    33   19   30 1
    34    1   31 1
    35    1   32 1
    36    1   33 1
    37    4   34 1
    38    7   35 1
    39    8   36 1
    40   11   37 1
    41   15   38 1
    42   15   39 1
    43   18   40 1
    44   21   41 1
    45   22   42 1
    46   23   43 1
    47   26   44 1
    48   27   45 1
    49   28   46 1
    50   28   47 1
    51   29   48 1
    52   29   49 1
