LEV
  CCTOOLS-0502160711

 49 52  0  0  0  0  0  0  0  0999 V2000
    0.7690  -10.0410   23.2090 C   0  0  0  0  0
    0.2710   -8.8450   22.5800 O   0  0  0  0  0
    0.4890   -8.6780   21.2440 C   0  0  0  0  0
    1.3230   -9.5030   20.5040 C   0  0  0  0  0
    1.5050   -9.2990   19.1330 C   0  0  0  0  0
    2.3280  -10.1040   18.4270 N   0  0  0  0  0
    2.5180   -9.8710   17.1510 C   0  0  0  0  0
    1.8670   -8.8810   16.4300 C   0  0  0  0  0
    1.0150   -8.0240   17.0740 C   0  0  0  0  0
    0.8130   -8.2320   18.4730 C   0  0  0  0  0
   -0.0130   -7.3910   19.2280 C   0  0  0  0  0
   -0.1860   -7.5970   20.6010 C   0  0  0  0  0
   -1.0080   -6.6110   21.3510 C   0  0  0  0  0
   -1.2460   -5.5200   20.8270 O   0  0  0  0  0
   -1.3750   -6.7780   22.6400 N   0  0  0  0  0
    0.3070   -7.0390   16.4700 O   0  0  0  0  0
    0.5510   -6.6830   15.1750 C   0  0  0  0  0
    0.0590   -7.4230   14.1030 C   0  0  0  0  0
    0.2960   -6.9790   12.8120 C   0  0  0  0  0
    1.0260   -5.8400   12.5650 C   0  0  0  0  0
    1.4400   -5.0650   13.6590 C   0  0  0  0  0
    1.2210   -5.5060   14.9430 C   0  0  0  0  0
    1.2040   -5.3670   11.2560 N   0  0  0  0  0
    2.2670   -4.6340   10.8110 C   0  0  0  0  0
    3.2560   -4.4400   11.5050 O   0  0  0  0  0
    2.1340   -4.1540    9.5570 N   0  0  0  0  0
    3.0780   -3.2500    8.9200 C   0  0  0  0  0
    4.3920   -3.7920    8.4410 C   0  0  0  0  0
    3.3070   -3.4250    7.4310 C   0  0  0  0  0
   -0.2950   -7.9130   11.4620 CL  0  0  0  0  0
    0.5150  -10.0260   24.2790 H   0  0  0  0  0
    0.3110  -10.9220   22.7350 H   0  0  0  0  0
    1.8620  -10.0890   23.0930 H   0  0  0  0  0
    1.8390  -10.3150   20.9940 H   0  0  0  0  0
    3.2290  -10.4920   16.6260 H   0  0  0  0  0
    2.0310   -8.7870   15.3670 H   0  0  0  0  0
   -0.5240   -6.5720   18.7440 H   0  0  0  0  0
   -1.8220   -6.0320   23.1330 H   0  0  0  0  0
   -1.2000   -7.6480   23.1010 H   0  0  0  0  0
   -0.5000   -8.3310   14.2750 H   0  0  0  0  0
    1.9330   -4.1180   13.4920 H   0  0  0  0  0
    1.5790   -4.9210   15.7770 H   0  0  0  0  0
    0.4900   -5.5860   10.5910 H   0  0  0  0  0
    1.3330   -4.4390    9.0310 H   0  0  0  0  0
    3.0910   -2.2120    9.2830 H   0  0  0  0  0
    4.6470   -4.8480    8.6140 H   0  0  0  0  0
    5.3010   -3.1780    8.5190 H   0  0  0  0  0
    3.4300   -2.5440    6.7840 H   0  0  0  0  0
    2.7760   -4.2150    6.8790 H   0  0  0  0  0
  1 31  1  0  0  0
  1 32  1  0  0  0
  1 33  1  0  0  0
  2  1  1  0  0  0
  3  2  1  0  0  0
  4  3  2  0  0  0
  4 34  1  0  0  0
  5  4  1  0  0  0
  6  5  1  0  0  0
  7  6  2  0  0  0
  7 35  1  0  0  0
  8  9  2  0  0  0
  8  7  1  0  0  0
  8 36  1  0  0  0
  9 10  1  0  0  0
 10  5  2  0  0  0
 10 11  1  0  0  0
 11 12  2  0  0  0
 11 37  1  0  0  0
 12  3  1  0  0  0
 12 13  1  0  0  0
 13 15  1  0  0  0
 14 13  2  0  0  0
 15 38  1  0  0  0
 15 39  1  0  0  0
 16  9  1  0  0  0
 17 16  1  0  0  0
 18 17  2  0  0  0
 18 40  1  0  0  0
 19 18  1  0  0  0
 20 19  2  0  0  0
 20 21  1  0  0  0
 21 22  2  0  0  0
 21 41  1  0  0  0
 22 17  1  0  0  0
 22 42  1  0  0  0
 23 20  1  0  0  0
 23 43  1  0  0  0
 24 23  1  0  0  0
 24 25  2  0  0  0
 26 24  1  0  0  0
 26 44  1  0  0  0
 27 26  1  0  0  0
 27 45  1  0  0  0
 28 27  1  0  0  0
 28 46  1  0  0  0
 28 47  1  0  0  0
 29 28  1  0  0  0
 29 27  1  0  0  0
 29 48  1  0  0  0
 29 49  1  0  0  0
 30 19  1  0  0  0
M  END
$$$$
