@<TRIPOS>MOLECULE
4-[3-chloro-4-(cyclopropylcarbamoylamino)phenoxy]-7-methoxy-quinoline-6-carboxamide
   49    52     0     0     0
SMALL
USER_CHARGES

@<TRIPOS>ATOM
      1 C1          6.1704   -8.5147  -13.2904 C.3       1 LEN         0.1145
      2 O1          6.8172   -7.2561  -13.1424 O.3       1 LEN        -0.3541
      3 C2          6.2283   -6.3586  -12.3024 C.ar      1 LEN         0.1346
      4 C3          6.5870   -6.3565  -10.9522 C.ar      1 LEN        -0.1972
      5 C4          6.0195   -5.4634  -10.0476 C.ar      1 LEN         0.4324
      6 N1          6.3880   -5.4884   -8.7528 N.ar      1 LEN        -0.6779
      7 C5          5.8123   -4.6037   -7.9067 C.ar      1 LEN         0.4494
      8 C6          4.8670   -3.6725   -8.2862 C.ar      1 LEN        -0.3320
      9 C7          4.4892   -3.6492   -9.6210 C.ar      1 LEN         0.1746
     10 C8          5.0609   -4.5484  -10.5312 C.ar      1 LEN        -0.1742
     11 C9          4.6999   -4.5503  -11.8893 C.ar      1 LEN        -0.0447
     12 C10         5.2836   -5.4545  -12.7719 C.ar      1 LEN        -0.1561
     13 C11         4.8929   -5.4367  -14.1745 C.2       1 LEN         0.6839
     14 O2          3.9376   -6.1153  -14.5881 O.2       1 LEN        -0.6054
     15 N2          5.6151   -4.6172  -15.0357 N.am      1 LEN        -0.6641
     16 O3          3.5553   -2.7339  -10.0112 O.3       1 LEN        -0.2392
     17 C12         3.8534   -1.3961   -9.8252 C.ar      1 LEN         0.0397
     18 C13         5.1124   -0.9068  -10.1737 C.ar      1 LEN        -0.0910
     19 C14         5.4124    0.4425   -9.9869 C.ar      1 LEN        -0.0475
     20 C15         4.4536    1.3026   -9.4516 C.ar      1 LEN         0.1097
     21 C16         3.1947    0.8133   -9.1030 C.ar      1 LEN        -0.1506
     22 C17         2.8946   -0.5361   -9.2898 C.ar      1 LEN        -0.0938
     23 N3          4.7221    2.6599   -9.2509 N.am      1 LEN        -0.4794
     24 C18         3.8713    3.6510   -8.7259 C.2       1 LEN         0.7796
     25 O4          2.7154    3.4841   -8.3443 O.2       1 LEN        -0.6078
     26 N4          4.5174    4.8909   -8.6875 N.am      1 LEN        -0.5350
     27 C19         3.8864    6.0938   -8.1955 C.3       1 LEN         0.0537
     28 C20         3.8766    6.3978   -6.7359 C.3       1 LEN        -0.1458
     29 C21         4.7128    7.2189   -7.6719 C.3       1 LEN        -0.1458
     30 Cl1         6.9846    1.0061  -10.4287 Cl        1 LEN        -0.0955
     31 H1          6.7387   -9.1378  -13.9852 H         1 LEN         0.0495
     32 H2          5.1560   -8.3619  -13.6674 H         1 LEN         0.0495
     33 H3          6.1245   -9.0075  -12.3164 H         1 LEN         0.0495
     34 H4          7.3293   -7.0726  -10.6022 H         1 LEN         0.1676
     35 H5          6.1465   -4.6687   -6.8765 H         1 LEN         0.0265
     36 H6          4.4391   -2.9873   -7.5630 H         1 LEN         0.1607
     37 H7          3.9608   -3.8457  -12.2662 H         1 LEN         0.1620
     38 H8          6.3796   -4.0298  -14.7207 H         1 LEN         0.3154
     39 H9          5.3810   -4.5488  -16.0209 H         1 LEN         0.3154
     40 H10         5.8530   -1.5861  -10.5895 H         1 LEN         0.1660
     41 H11         2.4383    1.4728   -8.6848 H         1 LEN         0.1897
     42 H12         1.9117   -0.9114   -9.0185 H         1 LEN         0.1596
     43 H13         5.6560    2.9860   -9.5163 H         1 LEN         0.3267
     44 H14         5.4745    4.9482   -9.0210 H         1 LEN         0.3027
     45 H15         3.0097    6.3289   -8.7719 H         1 LEN         0.1112
     46 H16         3.0052    6.8682   -6.2969 H         1 LEN         0.0782
     47 H17         4.3866    5.6997   -6.0836 H         1 LEN         0.0782
     48 H18         4.4015    8.2389   -7.8617 H         1 LEN         0.0782
     49 H19         5.7858    7.0735   -7.6506 H         1 LEN         0.0782
@<TRIPOS>BOND
     1    1    2 1
     2    2    3 1
     3    3   12 ar
     4    3    4 ar
     5    4    5 ar
     6    5   10 ar
     7    5    6 ar
     8    6    7 ar
     9    7    8 ar
    10    8    9 ar
    11    9   10 ar
    12   10   11 ar
    13   11   12 ar
    14   12   13 1
    15   13   14 2
    16   13   15 am
    17    9   16 1
    18   16   17 1
    19   17   22 ar
    20   17   18 ar
    21   18   19 ar
    22   19   20 ar
    23   20   21 ar
    24   21   22 ar
    25   20   23 1
    26   23   24 am
    27   24   25 2
    28   24   26 am
    29   26   27 1
    30   27   29 1
    31   27   28 1
    32   28   29 1
    33   19   30 1
    34    1   31 1
    35    1   32 1
    36    1   33 1
    37    4   34 1
    38    7   35 1
    39    8   36 1
    40   11   37 1
    41   15   38 1
    42   15   39 1
    43   18   40 1
    44   21   41 1
    45   22   42 1
    46   23   43 1
    47   26   44 1
    48   27   45 1
    49   28   46 1
    50   28   47 1
    51   29   48 1
    52   29   49 1
