LEV
                    3D
 Structure written by MMmdl.
 49 52  0  0  1  0            999 V2000
    0.7690  -10.0410   23.2090 C   0  0  0  0  0  0
    0.2710   -8.8450   22.5800 O   0  0  0  0  0  0
    0.4890   -8.6780   21.2440 C   0  0  0  0  0  0
    1.3230   -9.5030   20.5040 C   0  0  0  0  0  0
    1.5050   -9.2990   19.1330 C   0  0  0  0  0  0
    2.3280  -10.1040   18.4270 N   0  0  0  0  0  0
    2.5180   -9.8710   17.1510 C   0  0  0  0  0  0
    1.8670   -8.8810   16.4300 C   0  0  0  0  0  0
    1.0150   -8.0240   17.0740 C   0  0  0  0  0  0
    0.8130   -8.2320   18.4730 C   0  0  0  0  0  0
   -0.0130   -7.3910   19.2280 C   0  0  0  0  0  0
   -0.1860   -7.5970   20.6010 C   0  0  0  0  0  0
   -1.0080   -6.6110   21.3510 C   0  0  0  0  0  0
   -1.2460   -5.5200   20.8270 O   0  0  0  0  0  0
   -1.3750   -6.7780   22.6400 N   0  0  0  0  0  0
    0.3070   -7.0390   16.4700 O   0  0  0  0  0  0
    0.5510   -6.6830   15.1750 C   0  0  0  0  0  0
    0.0590   -7.4230   14.1030 C   0  0  0  0  0  0
    0.2960   -6.9790   12.8120 C   0  0  0  0  0  0
    1.0260   -5.8400   12.5650 C   0  0  0  0  0  0
    1.4400   -5.0650   13.6590 C   0  0  0  0  0  0
    1.2210   -5.5060   14.9430 C   0  0  0  0  0  0
    1.2040   -5.3670   11.2560 N   0  0  0  0  0  0
    2.2670   -4.6340   10.8110 C   0  0  0  0  0  0
    3.2560   -4.4400   11.5050 O   0  0  0  0  0  0
    2.1340   -4.1540    9.5570 N   0  0  0  0  0  0
    3.0780   -3.2500    8.9200 C   0  0  0  0  0  0
    4.3920   -3.7920    8.4410 C   0  0  0  0  0  0
    3.3070   -3.4250    7.4310 C   0  0  0  0  0  0
   -0.2950   -7.9130   11.4620 Cl  0  0  0  0  0  0
    0.5143  -10.0258   24.2790 H   0  0  0  0  0  0
    1.8618  -10.0886   23.0928 H   0  0  0  0  0  0
    0.3112  -10.9221   22.7356 H   0  0  0  0  0  0
    1.8390  -10.3150   20.9940 H   0  0  0  0  0  0
    3.2290  -10.4920   16.6260 H   0  0  0  0  0  0
    2.0310   -8.7870   15.3670 H   0  0  0  0  0  0
   -0.5240   -6.5720   18.7440 H   0  0  0  0  0  0
   -1.9846   -6.0122   23.1419 H   0  0  0  0  0  0
   -1.0643   -7.6798   23.1879 H   0  0  0  0  0  0
   -0.5000   -8.3310   14.2750 H   0  0  0  0  0  0
    1.9330   -4.1180   13.4920 H   0  0  0  0  0  0
    1.5790   -4.9210   15.7770 H   0  0  0  0  0  0
    0.4475   -5.5804   10.4864 H   0  0  0  0  0  0
    1.2404   -4.4903    9.0108 H   0  0  0  0  0  0
    2.7759   -2.4325    9.5912 H   0  0  0  0  0  0
    5.2042   -3.1254    8.7667 H   0  0  0  0  0  0
    4.5502   -4.7957    8.8624 H   0  0  0  0  0  0
    2.5588   -4.1212    7.0243 H   0  0  0  0  0  0
    3.2128   -2.4510    6.9285 H   0  0  0  0  0  0
  1 31  1  0  0  0
  1 32  1  0  0  0
  1 33  1  0  0  0
  1  2  1  0  0  0
  2  3  1  0  0  0
  3  4  2  0  0  0
  3 12  1  0  0  0
  4 34  1  0  0  0
  4  5  1  0  0  0
  5  6  2  0  0  0
  5 10  1  0  0  0
  6  7  1  0  0  0
  7 35  1  0  0  0
  7  8  2  0  0  0
  8  9  1  0  0  0
  8 36  1  0  0  0
  9 10  2  0  0  0
  9 16  1  0  0  0
 10 11  1  0  0  0
 11 12  2  0  0  0
 11 37  1  0  0  0
 12 13  1  0  0  0
 13 15  1  0  0  0
 13 14  2  0  0  0
 15 38  1  0  0  0
 15 39  1  0  0  0
 16 17  1  0  0  0
 17 18  2  0  0  0
 17 22  1  0  0  0
 18 40  1  0  0  0
 18 19  1  0  0  0
 19 20  2  0  0  0
 19 30  1  0  0  0
 20 21  1  0  0  0
 20 23  1  0  0  0
 21 22  2  0  0  0
 21 41  1  0  0  0
 22 42  1  0  0  0
 23 43  1  0  0  0
 23 24  1  0  0  0
 24 25  2  0  0  0
 24 26  1  0  0  0
 26 44  1  0  0  0
 26 27  1  0  0  0
 27 45  1  0  0  0
 27 28  1  0  0  0
 27 29  1  0  0  0
 28 46  1  0  0  0
 28 47  1  0  0  0
 28 29  1  0  0  0
 29 48  1  0  0  0
 29 49  1  0  0  0
M  END
> <s_m_source_file>
/Users/choderaj/github/choderalab/mcce-charges/mcce-charges.jchodera/epik_inhibitors/output/Lenvatinib/Lenvatinib-input.mol2

> <i_m_source_file_index>
1

> <r_lp_tautomer_probability>
1

> <r_epik_Ionization_Penalty>
  0.0001

> <r_epik_Ionization_Penalty_Charging>
  0.0000

> <r_epik_Ionization_Penalty_Neutral>
  0.0001

> <r_epik_State_Penalty>
 -0.0000

> <i_epik_Tot_Q>
0

$$$$
