4-[3-chloro-4-(cyclopropylcarbamoylamino)phenoxy]-7-methoxy-quinoline-6-carboxamide
                    3D
 Structure written by MMmdl.
 49 52  0  0  1  0            999 V2000
    6.1704   -8.5147  -13.2904 C   0  0  0  0  0  0
    6.8172   -7.2561  -13.1424 O   0  0  0  0  0  0
    6.2283   -6.3586  -12.3024 C   0  0  0  0  0  0
    6.5870   -6.3565  -10.9522 C   0  0  0  0  0  0
    6.0195   -5.4634  -10.0476 C   0  0  0  0  0  0
    6.3880   -5.4884   -8.7528 N   0  0  0  0  0  0
    5.8123   -4.6037   -7.9067 C   0  0  0  0  0  0
    4.8670   -3.6725   -8.2862 C   0  0  0  0  0  0
    4.4892   -3.6492   -9.6210 C   0  0  0  0  0  0
    5.0609   -4.5484  -10.5312 C   0  0  0  0  0  0
    4.6999   -4.5503  -11.8893 C   0  0  0  0  0  0
    5.2836   -5.4545  -12.7719 C   0  0  0  0  0  0
    4.8929   -5.4367  -14.1745 C   0  0  0  0  0  0
    3.9376   -6.1153  -14.5881 O   0  0  0  0  0  0
    5.6151   -4.6172  -15.0357 N   0  0  0  0  0  0
    3.5553   -2.7339  -10.0112 O   0  0  0  0  0  0
    3.8534   -1.3961   -9.8252 C   0  0  0  0  0  0
    5.1124   -0.9068  -10.1737 C   0  0  0  0  0  0
    5.4124    0.4425   -9.9869 C   0  0  0  0  0  0
    4.4536    1.3026   -9.4516 C   0  0  0  0  0  0
    3.1947    0.8133   -9.1030 C   0  0  0  0  0  0
    2.8946   -0.5361   -9.2898 C   0  0  0  0  0  0
    4.7221    2.6599   -9.2509 N   0  0  0  0  0  0
    3.8713    3.6510   -8.7259 C   0  0  0  0  0  0
    2.7154    3.4841   -8.3443 O   0  0  0  0  0  0
    4.5174    4.8909   -8.6875 N   0  0  0  0  0  0
    3.8864    6.0938   -8.1955 C   0  0  0  0  0  0
    3.8766    6.3978   -6.7359 C   0  0  0  0  0  0
    4.7128    7.2189   -7.6719 C   0  0  0  0  0  0
    6.9846    1.0061  -10.4287 Cl  0  0  0  0  0  0
    6.7432   -9.1413  -13.9899 H   0  0  0  0  0  0
    5.1546   -8.3609  -13.6833 H   0  0  0  0  0  0
    6.1134   -9.0149  -12.3124 H   0  0  0  0  0  0
    7.3293   -7.0726  -10.6022 H   0  0  0  0  0  0
    6.1465   -4.6687   -6.8765 H   0  0  0  0  0  0
    4.4391   -2.9873   -7.5630 H   0  0  0  0  0  0
    3.9608   -3.8457  -12.2662 H   0  0  0  0  0  0
    5.3528   -4.5742  -16.1031 H   0  0  0  0  0  0
    6.4485   -4.0121  -14.6493 H   0  0  0  0  0  0
    5.8530   -1.5861  -10.5895 H   0  0  0  0  0  0
    2.4383    1.4728   -8.6848 H   0  0  0  0  0  0
    1.9117   -0.9114   -9.0185 H   0  0  0  0  0  0
    5.7072    3.0709   -9.5168 H   0  0  0  0  0  0
    5.5537    4.9242   -9.0549 H   0  0  0  0  0  0
    3.1247    5.9748   -8.9801 H   0  0  0  0  0  0
    2.8525    6.6455   -6.4198 H   0  0  0  0  0  0
    4.2308    5.5197   -6.1761 H   0  0  0  0  0  0
    5.7724    7.0334   -7.9017 H   0  0  0  0  0  0
    4.3941    8.1592   -8.1454 H   0  0  0  0  0  0
  1  2  1  0  0  0
  1 31  1  0  0  0
  1 32  1  0  0  0
  1 33  1  0  0  0
  2  3  1  0  0  0
  3 12  2  0  0  0
  3  4  1  0  0  0
  4  5  2  0  0  0
  4 34  1  0  0  0
  5 10  1  0  0  0
  5  6  1  0  0  0
  6  7  2  0  0  0
  7  8  1  0  0  0
  7 35  1  0  0  0
  8  9  2  0  0  0
  8 36  1  0  0  0
  9 10  1  0  0  0
  9 16  1  0  0  0
 10 11  2  0  0  0
 11 12  1  0  0  0
 11 37  1  0  0  0
 12 13  1  0  0  0
 13 14  2  0  0  0
 13 15  1  0  0  0
 15 38  1  0  0  0
 15 39  1  0  0  0
 16 17  1  0  0  0
 17 22  2  0  0  0
 17 18  1  0  0  0
 18 19  2  0  0  0
 18 40  1  0  0  0
 19 20  1  0  0  0
 19 30  1  0  0  0
 20 21  2  0  0  0
 20 23  1  0  0  0
 21 22  1  0  0  0
 21 41  1  0  0  0
 22 42  1  0  0  0
 23 24  1  0  0  0
 23 43  1  0  0  0
 24 25  2  0  0  0
 24 26  1  0  0  0
 26 27  1  0  0  0
 26 44  1  0  0  0
 27 29  1  0  0  0
 27 28  1  0  0  0
 27 45  1  0  0  0
 28 29  1  0  0  0
 28 46  1  0  0  0
 28 47  1  0  0  0
 29 48  1  0  0  0
 29 49  1  0  0  0
M  END
> <s_m_source_file>
/Users/andrea/Development/mcce-charges/epik_inhibitors/output/Lenvatinib/Lenvatinib-input.mol2

> <i_m_source_file_index>
1

> <r_lp_tautomer_probability>
1

> <r_epik_Ionization_Penalty>
  0.0001

> <r_epik_Ionization_Penalty_Charging>
  0.0000

> <r_epik_Ionization_Penalty_Neutral>
  0.0001

> <r_epik_State_Penalty>
  0.0001

> <i_epik_Tot_Q>
0

$$$$
4-[3-chloro-4-(cyclopropylcarbamoylamino)phenoxy]-7-methoxy-quinoline-6-carboxamide
                    3D
 Structure written by MMmdl.
 48 51  0  0  1  0            999 V2000
    6.1704   -8.5147  -13.2904 C   0  0  0  0  0  0
    6.8172   -7.2561  -13.1424 O   0  0  0  0  0  0
    6.2283   -6.3586  -12.3024 C   0  0  0  0  0  0
    6.5870   -6.3565  -10.9522 C   0  0  0  0  0  0
    6.0195   -5.4634  -10.0476 C   0  0  0  0  0  0
    6.3880   -5.4884   -8.7528 N   0  0  0  0  0  0
    5.8123   -4.6037   -7.9067 C   0  0  0  0  0  0
    4.8670   -3.6725   -8.2862 C   0  0  0  0  0  0
    4.4892   -3.6492   -9.6210 C   0  0  0  0  0  0
    5.0609   -4.5484  -10.5312 C   0  0  0  0  0  0
    4.6999   -4.5503  -11.8893 C   0  0  0  0  0  0
    5.2836   -5.4545  -12.7719 C   0  0  0  0  0  0
    4.8929   -5.4367  -14.1745 C   0  0  0  0  0  0
    3.9376   -6.1153  -14.5881 O   0  5  0  0  0  0
    5.6151   -4.6172  -15.0357 N   0  0  0  0  0  0
    3.5553   -2.7339  -10.0112 O   0  0  0  0  0  0
    3.8534   -1.3961   -9.8252 C   0  0  0  0  0  0
    5.1124   -0.9068  -10.1737 C   0  0  0  0  0  0
    5.4124    0.4425   -9.9869 C   0  0  0  0  0  0
    4.4536    1.3026   -9.4516 C   0  0  0  0  0  0
    3.1947    0.8133   -9.1030 C   0  0  0  0  0  0
    2.8946   -0.5361   -9.2898 C   0  0  0  0  0  0
    4.7221    2.6599   -9.2509 N   0  0  0  0  0  0
    3.8713    3.6510   -8.7259 C   0  0  0  0  0  0
    2.7154    3.4841   -8.3443 O   0  0  0  0  0  0
    4.5174    4.8909   -8.6875 N   0  0  0  0  0  0
    3.8864    6.0938   -8.1955 C   0  0  0  0  0  0
    3.8766    6.3978   -6.7359 C   0  0  0  0  0  0
    4.7128    7.2189   -7.6719 C   0  0  0  0  0  0
    6.9846    1.0061  -10.4287 Cl  0  0  0  0  0  0
    6.7432   -9.1413  -13.9899 H   0  0  0  0  0  0
    5.1546   -8.3609  -13.6833 H   0  0  0  0  0  0
    6.1134   -9.0149  -12.3124 H   0  0  0  0  0  0
    7.3293   -7.0726  -10.6022 H   0  0  0  0  0  0
    6.1465   -4.6687   -6.8765 H   0  0  0  0  0  0
    4.4391   -2.9873   -7.5630 H   0  0  0  0  0  0
    3.9608   -3.8457  -12.2662 H   0  0  0  0  0  0
    5.3528   -4.5742  -16.1031 H   0  0  0  0  0  0
    5.8001   -1.5235  -10.5567 H   0  0  0  0  0  0
    2.5073    1.4299   -8.7192 H   0  0  0  0  0  0
    1.9914   -0.8865   -9.0417 H   0  0  0  0  0  0
    5.7072    3.0709   -9.5168 H   0  0  0  0  0  0
    5.5537    4.9242   -9.0549 H   0  0  0  0  0  0
    3.1247    5.9748   -8.9801 H   0  0  0  0  0  0
    2.8525    6.6455   -6.4198 H   0  0  0  0  0  0
    4.2308    5.5197   -6.1761 H   0  0  0  0  0  0
    5.7724    7.0334   -7.9017 H   0  0  0  0  0  0
    4.3941    8.1592   -8.1454 H   0  0  0  0  0  0
  1  2  1  0  0  0
  1 31  1  0  0  0
  1 32  1  0  0  0
  1 33  1  0  0  0
  2  3  1  0  0  0
  3 12  2  0  0  0
  3  4  1  0  0  0
  4  5  2  0  0  0
  4 34  1  0  0  0
  5 10  1  0  0  0
  5  6  1  0  0  0
  6  7  2  0  0  0
  7  8  1  0  0  0
  7 35  1  0  0  0
  8  9  2  0  0  0
  8 36  1  0  0  0
  9 10  1  0  0  0
  9 16  1  0  0  0
 10 11  2  0  0  0
 11 12  1  0  0  0
 11 37  1  0  0  0
 12 13  1  0  0  0
 13 14  1  0  0  0
 13 15  2  0  0  0
 15 38  1  0  0  0
 16 17  1  0  0  0
 17 22  2  0  0  0
 17 18  1  0  0  0
 18 19  2  0  0  0
 18 39  1  0  0  0
 19 20  1  0  0  0
 19 30  1  0  0  0
 20 21  2  0  0  0
 20 23  1  0  0  0
 21 22  1  0  0  0
 21 40  1  0  0  0
 22 41  1  0  0  0
 23 24  1  0  0  0
 23 42  1  0  0  0
 24 25  2  0  0  0
 24 26  1  0  0  0
 26 27  1  0  0  0
 26 43  1  0  0  0
 27 29  1  0  0  0
 27 28  1  0  0  0
 27 44  1  0  0  0
 28 29  1  0  0  0
 28 45  1  0  0  0
 28 46  1  0  0  0
 29 47  1  0  0  0
 29 48  1  0  0  0
M  CHG  1  14  -1
M  END
> <s_m_source_file>
/Users/andrea/Development/mcce-charges/epik_inhibitors/output/Lenvatinib/Lenvatinib-input.mol2

> <i_m_source_file_index>
1

> <r_lp_tautomer_probability>
1

> <r_epik_Ionization_Penalty>
  5.4012

> <r_epik_Ionization_Penalty_Charging>
  5.4012

> <r_epik_Ionization_Penalty_Neutral>
  0.0000

> <r_epik_State_Penalty>
  5.7779

> <i_epik_Tot_Q>
-1

$$$$
4-[3-chloro-4-(cyclopropylcarbamoylamino)phenoxy]-7-methoxy-quinoline-6-carboxamide
                    3D
 Structure written by MMmdl.
 48 51  0  0  1  0            999 V2000
    6.1704   -8.5147  -13.2904 C   0  0  0  0  0  0
    6.8172   -7.2561  -13.1424 O   0  0  0  0  0  0
    6.2283   -6.3586  -12.3024 C   0  0  0  0  0  0
    6.5870   -6.3565  -10.9522 C   0  0  0  0  0  0
    6.0195   -5.4634  -10.0476 C   0  0  0  0  0  0
    6.3880   -5.4884   -8.7528 N   0  0  0  0  0  0
    5.8123   -4.6037   -7.9067 C   0  0  0  0  0  0
    4.8670   -3.6725   -8.2862 C   0  0  0  0  0  0
    4.4892   -3.6492   -9.6210 C   0  0  0  0  0  0
    5.0609   -4.5484  -10.5312 C   0  0  0  0  0  0
    4.6999   -4.5503  -11.8893 C   0  0  0  0  0  0
    5.2836   -5.4545  -12.7719 C   0  0  0  0  0  0
    4.8929   -5.4367  -14.1745 C   0  0  0  0  0  0
    3.9376   -6.1153  -14.5881 O   0  5  0  0  0  0
    5.6151   -4.6172  -15.0357 N   0  0  0  0  0  0
    3.5553   -2.7339  -10.0112 O   0  0  0  0  0  0
    3.8534   -1.3961   -9.8252 C   0  0  0  0  0  0
    5.1124   -0.9068  -10.1737 C   0  0  0  0  0  0
    5.4124    0.4425   -9.9869 C   0  0  0  0  0  0
    4.4536    1.3026   -9.4516 C   0  0  0  0  0  0
    3.1947    0.8133   -9.1030 C   0  0  0  0  0  0
    2.8946   -0.5361   -9.2898 C   0  0  0  0  0  0
    4.7221    2.6599   -9.2509 N   0  0  0  0  0  0
    3.8713    3.6510   -8.7259 C   0  0  0  0  0  0
    2.7154    3.4841   -8.3443 O   0  0  0  0  0  0
    4.5174    4.8909   -8.6875 N   0  0  0  0  0  0
    3.8864    6.0938   -8.1955 C   0  0  0  0  0  0
    3.8766    6.3978   -6.7359 C   0  0  0  0  0  0
    4.7128    7.2189   -7.6719 C   0  0  0  0  0  0
    6.9846    1.0061  -10.4287 Cl  0  0  0  0  0  0
    6.7432   -9.1413  -13.9899 H   0  0  0  0  0  0
    5.1546   -8.3609  -13.6833 H   0  0  0  0  0  0
    6.1134   -9.0149  -12.3124 H   0  0  0  0  0  0
    7.3293   -7.0726  -10.6022 H   0  0  0  0  0  0
    6.1465   -4.6687   -6.8765 H   0  0  0  0  0  0
    4.4391   -2.9873   -7.5630 H   0  0  0  0  0  0
    3.9608   -3.8457  -12.2662 H   0  0  0  0  0  0
    6.4485   -4.0121  -14.6493 H   0  0  0  0  0  0
    5.8001   -1.5235  -10.5567 H   0  0  0  0  0  0
    2.5073    1.4299   -8.7192 H   0  0  0  0  0  0
    1.9914   -0.8865   -9.0417 H   0  0  0  0  0  0
    5.7072    3.0709   -9.5168 H   0  0  0  0  0  0
    5.5537    4.9242   -9.0549 H   0  0  0  0  0  0
    3.1247    5.9748   -8.9801 H   0  0  0  0  0  0
    2.8525    6.6455   -6.4198 H   0  0  0  0  0  0
    4.2308    5.5197   -6.1761 H   0  0  0  0  0  0
    5.7724    7.0334   -7.9017 H   0  0  0  0  0  0
    4.3941    8.1592   -8.1454 H   0  0  0  0  0  0
  1  2  1  0  0  0
  1 31  1  0  0  0
  1 32  1  0  0  0
  1 33  1  0  0  0
  2  3  1  0  0  0
  3 12  2  0  0  0
  3  4  1  0  0  0
  4  5  2  0  0  0
  4 34  1  0  0  0
  5 10  1  0  0  0
  5  6  1  0  0  0
  6  7  2  0  0  0
  7  8  1  0  0  0
  7 35  1  0  0  0
  8  9  2  0  0  0
  8 36  1  0  0  0
  9 10  1  0  0  0
  9 16  1  0  0  0
 10 11  2  0  0  0
 11 12  1  0  0  0
 11 37  1  0  0  0
 12 13  1  0  0  0
 13 14  1  0  0  0
 13 15  2  0  0  0
 15 38  1  0  0  0
 16 17  1  0  0  0
 17 22  2  0  0  0
 17 18  1  0  0  0
 18 19  2  0  0  0
 18 39  1  0  0  0
 19 20  1  0  0  0
 19 30  1  0  0  0
 20 21  2  0  0  0
 20 23  1  0  0  0
 21 22  1  0  0  0
 21 40  1  0  0  0
 22 41  1  0  0  0
 23 24  1  0  0  0
 23 42  1  0  0  0
 24 25  2  0  0  0
 24 26  1  0  0  0
 26 27  1  0  0  0
 26 43  1  0  0  0
 27 29  1  0  0  0
 27 28  1  0  0  0
 27 44  1  0  0  0
 28 29  1  0  0  0
 28 45  1  0  0  0
 28 46  1  0  0  0
 29 47  1  0  0  0
 29 48  1  0  0  0
M  CHG  1  14  -1
M  END
> <s_m_source_file>
/Users/andrea/Development/mcce-charges/epik_inhibitors/output/Lenvatinib/Lenvatinib-input.mol2

> <i_m_source_file_index>
1

> <r_lp_tautomer_probability>
1

> <r_epik_Ionization_Penalty>
  5.4012

> <r_epik_Ionization_Penalty_Charging>
  5.4012

> <r_epik_Ionization_Penalty_Neutral>
  0.0000

> <r_epik_State_Penalty>
  5.7779

> <i_epik_Tot_Q>
-1

$$$$
4-[3-chloro-4-(cyclopropylcarbamoylamino)phenoxy]-7-methoxy-quinoline-6-carboxamide
                    3D
 Structure written by MMmdl.
 48 51  0  0  1  0            999 V2000
    6.1704   -8.5147  -13.2904 C   0  0  0  0  0  0
    6.8172   -7.2561  -13.1424 O   0  0  0  0  0  0
    6.2283   -6.3586  -12.3024 C   0  0  0  0  0  0
    6.5870   -6.3565  -10.9522 C   0  0  0  0  0  0
    6.0195   -5.4634  -10.0476 C   0  0  0  0  0  0
    6.3880   -5.4884   -8.7528 N   0  0  0  0  0  0
    5.8123   -4.6037   -7.9067 C   0  0  0  0  0  0
    4.8670   -3.6725   -8.2862 C   0  0  0  0  0  0
    4.4892   -3.6492   -9.6210 C   0  0  0  0  0  0
    5.0609   -4.5484  -10.5312 C   0  0  0  0  0  0
    4.6999   -4.5503  -11.8893 C   0  0  0  0  0  0
    5.2836   -5.4545  -12.7719 C   0  0  0  0  0  0
    4.8929   -5.4367  -14.1745 C   0  0  0  0  0  0
    3.9376   -6.1153  -14.5881 O   0  0  0  0  0  0
    5.6151   -4.6172  -15.0357 N   0  0  0  0  0  0
    3.5553   -2.7339  -10.0112 O   0  0  0  0  0  0
    3.8534   -1.3961   -9.8252 C   0  0  0  0  0  0
    5.1124   -0.9068  -10.1737 C   0  0  0  0  0  0
    5.4124    0.4425   -9.9869 C   0  0  0  0  0  0
    4.4536    1.3026   -9.4516 C   0  0  0  0  0  0
    3.1947    0.8133   -9.1030 C   0  0  0  0  0  0
    2.8946   -0.5361   -9.2898 C   0  0  0  0  0  0
    4.7221    2.6599   -9.2509 N   0  0  0  0  0  0
    3.8713    3.6510   -8.7259 C   0  0  0  0  0  0
    2.7154    3.4841   -8.3443 O   0  5  0  0  0  0
    4.5174    4.8909   -8.6875 N   0  0  0  0  0  0
    3.8864    6.0938   -8.1955 C   0  0  0  0  0  0
    3.8766    6.3978   -6.7359 C   0  0  0  0  0  0
    4.7128    7.2189   -7.6719 C   0  0  0  0  0  0
    6.9846    1.0061  -10.4287 Cl  0  0  0  0  0  0
    6.7432   -9.1413  -13.9899 H   0  0  0  0  0  0
    5.1546   -8.3609  -13.6833 H   0  0  0  0  0  0
    6.1134   -9.0149  -12.3124 H   0  0  0  0  0  0
    7.3293   -7.0726  -10.6022 H   0  0  0  0  0  0
    6.1465   -4.6687   -6.8765 H   0  0  0  0  0  0
    4.4391   -2.9873   -7.5630 H   0  0  0  0  0  0
    3.9608   -3.8457  -12.2662 H   0  0  0  0  0  0
    5.3528   -4.5742  -16.1031 H   0  0  0  0  0  0
    6.4485   -4.0121  -14.6493 H   0  0  0  0  0  0
    5.8530   -1.5861  -10.5895 H   0  0  0  0  0  0
    2.4383    1.4728   -8.6848 H   0  0  0  0  0  0
    1.9117   -0.9114   -9.0185 H   0  0  0  0  0  0
    5.5537    4.9242   -9.0549 H   0  0  0  0  0  0
    3.1247    5.9748   -8.9801 H   0  0  0  0  0  0
    2.8525    6.6455   -6.4198 H   0  0  0  0  0  0
    4.2308    5.5197   -6.1761 H   0  0  0  0  0  0
    5.7724    7.0334   -7.9017 H   0  0  0  0  0  0
    4.3941    8.1592   -8.1454 H   0  0  0  0  0  0
  1  2  1  0  0  0
  1 31  1  0  0  0
  1 32  1  0  0  0
  1 33  1  0  0  0
  2  3  1  0  0  0
  3 12  2  0  0  0
  3  4  1  0  0  0
  4  5  2  0  0  0
  4 34  1  0  0  0
  5 10  1  0  0  0
  5  6  1  0  0  0
  6  7  2  0  0  0
  7  8  1  0  0  0
  7 35  1  0  0  0
  8  9  2  0  0  0
  8 36  1  0  0  0
  9 10  1  0  0  0
  9 16  1  0  0  0
 10 11  2  0  0  0
 11 12  1  0  0  0
 11 37  1  0  0  0
 12 13  1  0  0  0
 13 14  2  0  0  0
 13 15  1  0  0  0
 15 38  1  0  0  0
 15 39  1  0  0  0
 16 17  1  0  0  0
 17 22  2  0  0  0
 17 18  1  0  0  0
 18 19  2  0  0  0
 18 40  1  0  0  0
 19 20  1  0  0  0
 19 30  1  0  0  0
 20 21  2  0  0  0
 20 23  1  0  0  0
 21 22  1  0  0  0
 21 41  1  0  0  0
 22 42  1  0  0  0
 23 24  2  0  0  0
 24 25  1  0  0  0
 24 26  1  0  0  0
 26 27  1  0  0  0
 26 43  1  0  0  0
 27 29  1  0  0  0
 27 28  1  0  0  0
 27 44  1  0  0  0
 28 29  1  0  0  0
 28 45  1  0  0  0
 28 46  1  0  0  0
 29 47  1  0  0  0
 29 48  1  0  0  0
M  CHG  1  25  -1
M  END
> <s_m_source_file>
/Users/andrea/Development/mcce-charges/epik_inhibitors/output/Lenvatinib/Lenvatinib-input.mol2

> <i_m_source_file_index>
1

> <r_epik_Ionization_Penalty>
  6.5183

> <r_epik_Ionization_Penalty_Charging>
  6.5182

> <r_epik_Ionization_Penalty_Neutral>
  0.0001

> <r_epik_State_Penalty>
  6.9638

> <i_epik_Tot_Q>
-1

$$$$
4-[3-chloro-4-(cyclopropylcarbamoylamino)phenoxy]-7-methoxy-quinoline-6-carboxamide
                    3D
 Structure written by MMmdl.
 50 53  0  0  1  0            999 V2000
    6.1704   -8.5147  -13.2904 C   0  0  0  0  0  0
    6.8172   -7.2561  -13.1424 O   0  0  0  0  0  0
    6.2283   -6.3586  -12.3024 C   0  0  0  0  0  0
    6.5870   -6.3565  -10.9522 C   0  0  0  0  0  0
    6.0195   -5.4634  -10.0476 C   0  0  0  0  0  0
    6.3880   -5.4884   -8.7528 N   0  3  0  0  0  0
    5.8123   -4.6037   -7.9067 C   0  0  0  0  0  0
    4.8670   -3.6725   -8.2862 C   0  0  0  0  0  0
    4.4892   -3.6492   -9.6210 C   0  0  0  0  0  0
    5.0609   -4.5484  -10.5312 C   0  0  0  0  0  0
    4.6999   -4.5503  -11.8893 C   0  0  0  0  0  0
    5.2836   -5.4545  -12.7719 C   0  0  0  0  0  0
    4.8929   -5.4367  -14.1745 C   0  0  0  0  0  0
    3.9376   -6.1153  -14.5881 O   0  0  0  0  0  0
    5.6151   -4.6172  -15.0357 N   0  0  0  0  0  0
    3.5553   -2.7339  -10.0112 O   0  0  0  0  0  0
    3.8534   -1.3961   -9.8252 C   0  0  0  0  0  0
    5.1124   -0.9068  -10.1737 C   0  0  0  0  0  0
    5.4124    0.4425   -9.9869 C   0  0  0  0  0  0
    4.4536    1.3026   -9.4516 C   0  0  0  0  0  0
    3.1947    0.8133   -9.1030 C   0  0  0  0  0  0
    2.8946   -0.5361   -9.2898 C   0  0  0  0  0  0
    4.7221    2.6599   -9.2509 N   0  0  0  0  0  0
    3.8713    3.6510   -8.7259 C   0  0  0  0  0  0
    2.7154    3.4841   -8.3443 O   0  0  0  0  0  0
    4.5174    4.8909   -8.6875 N   0  0  0  0  0  0
    3.8864    6.0938   -8.1955 C   0  0  0  0  0  0
    3.8766    6.3978   -6.7359 C   0  0  0  0  0  0
    4.7128    7.2189   -7.6719 C   0  0  0  0  0  0
    6.9846    1.0061  -10.4287 Cl  0  0  0  0  0  0
    6.7432   -9.1413  -13.9899 H   0  0  0  0  0  0
    5.1546   -8.3609  -13.6833 H   0  0  0  0  0  0
    6.1134   -9.0149  -12.3124 H   0  0  0  0  0  0
    7.3293   -7.0726  -10.6022 H   0  0  0  0  0  0
    6.1465   -4.6687   -6.8765 H   0  0  0  0  0  0
    4.4391   -2.9873   -7.5630 H   0  0  0  0  0  0
    3.9608   -3.8457  -12.2662 H   0  0  0  0  0  0
    5.3528   -4.5742  -16.1031 H   0  0  0  0  0  0
    6.4485   -4.0121  -14.6493 H   0  0  0  0  0  0
    5.8530   -1.5861  -10.5895 H   0  0  0  0  0  0
    2.4383    1.4728   -8.6848 H   0  0  0  0  0  0
    1.9117   -0.9114   -9.0185 H   0  0  0  0  0  0
    5.7072    3.0709   -9.5168 H   0  0  0  0  0  0
    5.5537    4.9242   -9.0549 H   0  0  0  0  0  0
    3.1247    5.9748   -8.9801 H   0  0  0  0  0  0
    2.8525    6.6455   -6.4198 H   0  0  0  0  0  0
    4.2308    5.5197   -6.1761 H   0  0  0  0  0  0
    5.7724    7.0334   -7.9017 H   0  0  0  0  0  0
    4.3941    8.1592   -8.1454 H   0  0  0  0  0  0
    7.1385   -6.2151   -8.4085 H   0  0  0  0  0  0
  1  2  1  0  0  0
  1 31  1  0  0  0
  1 32  1  0  0  0
  1 33  1  0  0  0
  2  3  1  0  0  0
  3 12  2  0  0  0
  3  4  1  0  0  0
  4  5  2  0  0  0
  4 34  1  0  0  0
  5 10  1  0  0  0
  5  6  1  0  0  0
  6  7  2  0  0  0
  6 50  1  0  0  0
  7  8  1  0  0  0
  7 35  1  0  0  0
  8  9  2  0  0  0
  8 36  1  0  0  0
  9 10  1  0  0  0
  9 16  1  0  0  0
 10 11  2  0  0  0
 11 12  1  0  0  0
 11 37  1  0  0  0
 12 13  1  0  0  0
 13 14  2  0  0  0
 13 15  1  0  0  0
 15 38  1  0  0  0
 15 39  1  0  0  0
 16 17  1  0  0  0
 17 22  2  0  0  0
 17 18  1  0  0  0
 18 19  2  0  0  0
 18 40  1  0  0  0
 19 20  1  0  0  0
 19 30  1  0  0  0
 20 21  2  0  0  0
 20 23  1  0  0  0
 21 22  1  0  0  0
 21 41  1  0  0  0
 22 42  1  0  0  0
 23 24  1  0  0  0
 23 43  1  0  0  0
 24 25  2  0  0  0
 24 26  1  0  0  0
 26 27  1  0  0  0
 26 44  1  0  0  0
 27 29  1  0  0  0
 27 28  1  0  0  0
 27 45  1  0  0  0
 28 29  1  0  0  0
 28 46  1  0  0  0
 28 47  1  0  0  0
 29 48  1  0  0  0
 29 49  1  0  0  0
M  CHG  1   6   1
M  END
> <s_m_source_file>
/Users/andrea/Development/mcce-charges/epik_inhibitors/output/Lenvatinib/Lenvatinib-input.mol2

> <i_m_source_file_index>
1

> <r_lp_tautomer_probability>
1

> <r_epik_Ionization_Penalty>
  7.6339

> <r_epik_Ionization_Penalty_Charging>
  7.6334

> <r_epik_Ionization_Penalty_Neutral>
  0.0005

> <r_epik_State_Penalty>
  8.1084

> <i_epik_Tot_Q>
1

$$$$
4-[3-chloro-4-(cyclopropylcarbamoylamino)phenoxy]-7-methoxy-quinoline-6-carboxamide
                    3D
 Structure written by MMmdl.
 48 51  0  0  1  0            999 V2000
    6.1704   -8.5147  -13.2904 C   0  0  0  0  0  0
    6.8172   -7.2561  -13.1424 O   0  0  0  0  0  0
    6.2283   -6.3586  -12.3024 C   0  0  0  0  0  0
    6.5870   -6.3565  -10.9522 C   0  0  0  0  0  0
    6.0195   -5.4634  -10.0476 C   0  0  0  0  0  0
    6.3880   -5.4884   -8.7528 N   0  0  0  0  0  0
    5.8123   -4.6037   -7.9067 C   0  0  0  0  0  0
    4.8670   -3.6725   -8.2862 C   0  0  0  0  0  0
    4.4892   -3.6492   -9.6210 C   0  0  0  0  0  0
    5.0609   -4.5484  -10.5312 C   0  0  0  0  0  0
    4.6999   -4.5503  -11.8893 C   0  0  0  0  0  0
    5.2836   -5.4545  -12.7719 C   0  0  0  0  0  0
    4.8929   -5.4367  -14.1745 C   0  0  0  0  0  0
    3.9376   -6.1153  -14.5881 O   0  0  0  0  0  0
    5.6151   -4.6172  -15.0357 N   0  0  0  0  0  0
    3.5553   -2.7339  -10.0112 O   0  0  0  0  0  0
    3.8534   -1.3961   -9.8252 C   0  0  0  0  0  0
    5.1124   -0.9068  -10.1737 C   0  0  0  0  0  0
    5.4124    0.4425   -9.9869 C   0  0  0  0  0  0
    4.4536    1.3026   -9.4516 C   0  0  0  0  0  0
    3.1947    0.8133   -9.1030 C   0  0  0  0  0  0
    2.8946   -0.5361   -9.2898 C   0  0  0  0  0  0
    4.7221    2.6599   -9.2509 N   0  0  0  0  0  0
    3.8713    3.6510   -8.7259 C   0  0  0  0  0  0
    2.7154    3.4841   -8.3443 O   0  5  0  0  0  0
    4.5174    4.8909   -8.6875 N   0  0  0  0  0  0
    3.8864    6.0938   -8.1955 C   0  0  0  0  0  0
    3.8766    6.3978   -6.7359 C   0  0  0  0  0  0
    4.7128    7.2189   -7.6719 C   0  0  0  0  0  0
    6.9846    1.0061  -10.4287 Cl  0  0  0  0  0  0
    6.7432   -9.1413  -13.9899 H   0  0  0  0  0  0
    5.1546   -8.3609  -13.6833 H   0  0  0  0  0  0
    6.1134   -9.0149  -12.3124 H   0  0  0  0  0  0
    7.3293   -7.0726  -10.6022 H   0  0  0  0  0  0
    6.1465   -4.6687   -6.8765 H   0  0  0  0  0  0
    4.4391   -2.9873   -7.5630 H   0  0  0  0  0  0
    3.9608   -3.8457  -12.2662 H   0  0  0  0  0  0
    5.3528   -4.5742  -16.1031 H   0  0  0  0  0  0
    6.4485   -4.0121  -14.6493 H   0  0  0  0  0  0
    5.8530   -1.5861  -10.5895 H   0  0  0  0  0  0
    2.4383    1.4728   -8.6848 H   0  0  0  0  0  0
    1.9117   -0.9114   -9.0185 H   0  0  0  0  0  0
    5.7072    3.0709   -9.5168 H   0  0  0  0  0  0
    3.1247    5.9748   -8.9801 H   0  0  0  0  0  0
    2.8525    6.6455   -6.4198 H   0  0  0  0  0  0
    4.2308    5.5197   -6.1761 H   0  0  0  0  0  0
    5.7724    7.0334   -7.9017 H   0  0  0  0  0  0
    4.3941    8.1592   -8.1454 H   0  0  0  0  0  0
  1  2  1  0  0  0
  1 31  1  0  0  0
  1 32  1  0  0  0
  1 33  1  0  0  0
  2  3  1  0  0  0
  3 12  2  0  0  0
  3  4  1  0  0  0
  4  5  2  0  0  0
  4 34  1  0  0  0
  5 10  1  0  0  0
  5  6  1  0  0  0
  6  7  2  0  0  0
  7  8  1  0  0  0
  7 35  1  0  0  0
  8  9  2  0  0  0
  8 36  1  0  0  0
  9 10  1  0  0  0
  9 16  1  0  0  0
 10 11  2  0  0  0
 11 12  1  0  0  0
 11 37  1  0  0  0
 12 13  1  0  0  0
 13 14  2  0  0  0
 13 15  1  0  0  0
 15 38  1  0  0  0
 15 39  1  0  0  0
 16 17  1  0  0  0
 17 22  2  0  0  0
 17 18  1  0  0  0
 18 19  2  0  0  0
 18 40  1  0  0  0
 19 20  1  0  0  0
 19 30  1  0  0  0
 20 21  2  0  0  0
 20 23  1  0  0  0
 21 22  1  0  0  0
 21 41  1  0  0  0
 22 42  1  0  0  0
 23 24  1  0  0  0
 23 43  1  0  0  0
 24 25  1  0  0  0
 24 26  2  0  0  0
 26 27  1  0  0  0
 27 29  1  0  0  0
 27 28  1  0  0  0
 27 44  1  0  0  0
 28 29  1  0  0  0
 28 45  1  0  0  0
 28 46  1  0  0  0
 29 47  1  0  0  0
 29 48  1  0  0  0
M  CHG  1  25  -1
M  END
> <s_m_source_file>
/Users/andrea/Development/mcce-charges/epik_inhibitors/output/Lenvatinib/Lenvatinib-input.mol2

> <i_m_source_file_index>
1

> <r_epik_Ionization_Penalty>
  9.1048

> <r_epik_Ionization_Penalty_Charging>
  9.1046

> <r_epik_Ionization_Penalty_Neutral>
  0.0002

> <r_epik_State_Penalty>
  9.7113

> <i_epik_Tot_Q>
-1

$$$$
4-[3-chloro-4-(cyclopropylcarbamoylamino)phenoxy]-7-methoxy-quinoline-6-carboxamide
                    3D
 Structure written by MMmdl.
 49 52  0  0  1  0            999 V2000
    6.1704   -8.5147  -13.2904 C   0  0  0  0  0  0
    6.8172   -7.2561  -13.1424 O   0  0  0  0  0  0
    6.2283   -6.3586  -12.3024 C   0  0  0  0  0  0
    6.5870   -6.3565  -10.9522 C   0  0  0  0  0  0
    6.0195   -5.4634  -10.0476 C   0  0  0  0  0  0
    6.3880   -5.4884   -8.7528 N   0  3  0  0  0  0
    5.8123   -4.6037   -7.9067 C   0  0  0  0  0  0
    4.8670   -3.6725   -8.2862 C   0  0  0  0  0  0
    4.4892   -3.6492   -9.6210 C   0  0  0  0  0  0
    5.0609   -4.5484  -10.5312 C   0  0  0  0  0  0
    4.6999   -4.5503  -11.8893 C   0  0  0  0  0  0
    5.2836   -5.4545  -12.7719 C   0  0  0  0  0  0
    4.8929   -5.4367  -14.1745 C   0  0  0  0  0  0
    3.9376   -6.1153  -14.5881 O   0  5  0  0  0  0
    5.6151   -4.6172  -15.0357 N   0  0  0  0  0  0
    3.5553   -2.7339  -10.0112 O   0  0  0  0  0  0
    3.8534   -1.3961   -9.8252 C   0  0  0  0  0  0
    5.1124   -0.9068  -10.1737 C   0  0  0  0  0  0
    5.4124    0.4425   -9.9869 C   0  0  0  0  0  0
    4.4536    1.3026   -9.4516 C   0  0  0  0  0  0
    3.1947    0.8133   -9.1030 C   0  0  0  0  0  0
    2.8946   -0.5361   -9.2898 C   0  0  0  0  0  0
    4.7221    2.6599   -9.2509 N   0  0  0  0  0  0
    3.8713    3.6510   -8.7259 C   0  0  0  0  0  0
    2.7154    3.4841   -8.3443 O   0  0  0  0  0  0
    4.5174    4.8909   -8.6875 N   0  0  0  0  0  0
    3.8864    6.0938   -8.1955 C   0  0  0  0  0  0
    3.8766    6.3978   -6.7359 C   0  0  0  0  0  0
    4.7128    7.2189   -7.6719 C   0  0  0  0  0  0
    6.9846    1.0061  -10.4287 Cl  0  0  0  0  0  0
    6.7432   -9.1413  -13.9899 H   0  0  0  0  0  0
    5.1546   -8.3609  -13.6833 H   0  0  0  0  0  0
    6.1134   -9.0149  -12.3124 H   0  0  0  0  0  0
    7.3293   -7.0726  -10.6022 H   0  0  0  0  0  0
    6.1465   -4.6687   -6.8765 H   0  0  0  0  0  0
    4.4391   -2.9873   -7.5630 H   0  0  0  0  0  0
    3.9608   -3.8457  -12.2662 H   0  0  0  0  0  0
    6.4485   -4.0121  -14.6493 H   0  0  0  0  0  0
    5.8001   -1.5235  -10.5567 H   0  0  0  0  0  0
    2.5073    1.4299   -8.7192 H   0  0  0  0  0  0
    1.9914   -0.8865   -9.0417 H   0  0  0  0  0  0
    5.7072    3.0709   -9.5168 H   0  0  0  0  0  0
    5.5537    4.9242   -9.0549 H   0  0  0  0  0  0
    3.1247    5.9748   -8.9801 H   0  0  0  0  0  0
    2.8525    6.6455   -6.4198 H   0  0  0  0  0  0
    4.2308    5.5197   -6.1761 H   0  0  0  0  0  0
    5.7724    7.0334   -7.9017 H   0  0  0  0  0  0
    4.3941    8.1592   -8.1454 H   0  0  0  0  0  0
    7.1385   -6.2151   -8.4085 H   0  0  0  0  0  0
  1  2  1  0  0  0
  1 31  1  0  0  0
  1 32  1  0  0  0
  1 33  1  0  0  0
  2  3  1  0  0  0
  3 12  2  0  0  0
  3  4  1  0  0  0
  4  5  2  0  0  0
  4 34  1  0  0  0
  5 10  1  0  0  0
  5  6  1  0  0  0
  6  7  2  0  0  0
  6 49  1  0  0  0
  7  8  1  0  0  0
  7 35  1  0  0  0
  8  9  2  0  0  0
  8 36  1  0  0  0
  9 10  1  0  0  0
  9 16  1  0  0  0
 10 11  2  0  0  0
 11 12  1  0  0  0
 11 37  1  0  0  0
 12 13  1  0  0  0
 13 14  1  0  0  0
 13 15  2  0  0  0
 15 38  1  0  0  0
 16 17  1  0  0  0
 17 22  2  0  0  0
 17 18  1  0  0  0
 18 19  2  0  0  0
 18 39  1  0  0  0
 19 20  1  0  0  0
 19 30  1  0  0  0
 20 21  2  0  0  0
 20 23  1  0  0  0
 21 22  1  0  0  0
 21 40  1  0  0  0
 22 41  1  0  0  0
 23 24  1  0  0  0
 23 42  1  0  0  0
 24 25  2  0  0  0
 24 26  1  0  0  0
 26 27  1  0  0  0
 26 43  1  0  0  0
 27 29  1  0  0  0
 27 28  1  0  0  0
 27 44  1  0  0  0
 28 29  1  0  0  0
 28 45  1  0  0  0
 28 46  1  0  0  0
 29 47  1  0  0  0
 29 48  1  0  0  0
M  CHG  2   6   1  14  -1
M  END
> <s_m_source_file>
/Users/andrea/Development/mcce-charges/epik_inhibitors/output/Lenvatinib/Lenvatinib-input.mol2

> <i_m_source_file_index>
1

> <r_epik_Ionization_Penalty>
 10.5598

> <r_epik_Ionization_Penalty_Charging>
 10.5598

> <r_epik_Ionization_Penalty_Neutral>
  0.0000

> <r_epik_State_Penalty>
 12.5723

> <i_epik_Tot_Q>
0

$$$$
4-[3-chloro-4-(cyclopropylcarbamoylamino)phenoxy]-7-methoxy-quinoline-6-carboxamide
                    3D
 Structure written by MMmdl.
 49 52  0  0  1  0            999 V2000
    6.1704   -8.5147  -13.2904 C   0  0  0  0  0  0
    6.8172   -7.2561  -13.1424 O   0  0  0  0  0  0
    6.2283   -6.3586  -12.3024 C   0  0  0  0  0  0
    6.5870   -6.3565  -10.9522 C   0  0  0  0  0  0
    6.0195   -5.4634  -10.0476 C   0  0  0  0  0  0
    6.3880   -5.4884   -8.7528 N   0  3  0  0  0  0
    5.8123   -4.6037   -7.9067 C   0  0  0  0  0  0
    4.8670   -3.6725   -8.2862 C   0  0  0  0  0  0
    4.4892   -3.6492   -9.6210 C   0  0  0  0  0  0
    5.0609   -4.5484  -10.5312 C   0  0  0  0  0  0
    4.6999   -4.5503  -11.8893 C   0  0  0  0  0  0
    5.2836   -5.4545  -12.7719 C   0  0  0  0  0  0
    4.8929   -5.4367  -14.1745 C   0  0  0  0  0  0
    3.9376   -6.1153  -14.5881 O   0  5  0  0  0  0
    5.6151   -4.6172  -15.0357 N   0  0  0  0  0  0
    3.5553   -2.7339  -10.0112 O   0  0  0  0  0  0
    3.8534   -1.3961   -9.8252 C   0  0  0  0  0  0
    5.1124   -0.9068  -10.1737 C   0  0  0  0  0  0
    5.4124    0.4425   -9.9869 C   0  0  0  0  0  0
    4.4536    1.3026   -9.4516 C   0  0  0  0  0  0
    3.1947    0.8133   -9.1030 C   0  0  0  0  0  0
    2.8946   -0.5361   -9.2898 C   0  0  0  0  0  0
    4.7221    2.6599   -9.2509 N   0  0  0  0  0  0
    3.8713    3.6510   -8.7259 C   0  0  0  0  0  0
    2.7154    3.4841   -8.3443 O   0  0  0  0  0  0
    4.5174    4.8909   -8.6875 N   0  0  0  0  0  0
    3.8864    6.0938   -8.1955 C   0  0  0  0  0  0
    3.8766    6.3978   -6.7359 C   0  0  0  0  0  0
    4.7128    7.2189   -7.6719 C   0  0  0  0  0  0
    6.9846    1.0061  -10.4287 Cl  0  0  0  0  0  0
    6.7432   -9.1413  -13.9899 H   0  0  0  0  0  0
    5.1546   -8.3609  -13.6833 H   0  0  0  0  0  0
    6.1134   -9.0149  -12.3124 H   0  0  0  0  0  0
    7.3293   -7.0726  -10.6022 H   0  0  0  0  0  0
    6.1465   -4.6687   -6.8765 H   0  0  0  0  0  0
    4.4391   -2.9873   -7.5630 H   0  0  0  0  0  0
    3.9608   -3.8457  -12.2662 H   0  0  0  0  0  0
    5.3528   -4.5742  -16.1031 H   0  0  0  0  0  0
    5.8001   -1.5235  -10.5567 H   0  0  0  0  0  0
    2.5073    1.4299   -8.7192 H   0  0  0  0  0  0
    1.9914   -0.8865   -9.0417 H   0  0  0  0  0  0
    5.7072    3.0709   -9.5168 H   0  0  0  0  0  0
    5.5537    4.9242   -9.0549 H   0  0  0  0  0  0
    3.1247    5.9748   -8.9801 H   0  0  0  0  0  0
    2.8525    6.6455   -6.4198 H   0  0  0  0  0  0
    4.2308    5.5197   -6.1761 H   0  0  0  0  0  0
    5.7724    7.0334   -7.9017 H   0  0  0  0  0  0
    4.3941    8.1592   -8.1454 H   0  0  0  0  0  0
    7.1385   -6.2151   -8.4085 H   0  0  0  0  0  0
  1  2  1  0  0  0
  1 31  1  0  0  0
  1 32  1  0  0  0
  1 33  1  0  0  0
  2  3  1  0  0  0
  3 12  2  0  0  0
  3  4  1  0  0  0
  4  5  2  0  0  0
  4 34  1  0  0  0
  5 10  1  0  0  0
  5  6  1  0  0  0
  6  7  2  0  0  0
  6 49  1  0  0  0
  7  8  1  0  0  0
  7 35  1  0  0  0
  8  9  2  0  0  0
  8 36  1  0  0  0
  9 10  1  0  0  0
  9 16  1  0  0  0
 10 11  2  0  0  0
 11 12  1  0  0  0
 11 37  1  0  0  0
 12 13  1  0  0  0
 13 14  1  0  0  0
 13 15  2  0  0  0
 15 38  1  0  0  0
 16 17  1  0  0  0
 17 22  2  0  0  0
 17 18  1  0  0  0
 18 19  2  0  0  0
 18 39  1  0  0  0
 19 20  1  0  0  0
 19 30  1  0  0  0
 20 21  2  0  0  0
 20 23  1  0  0  0
 21 22  1  0  0  0
 21 40  1  0  0  0
 22 41  1  0  0  0
 23 24  1  0  0  0
 23 42  1  0  0  0
 24 25  2  0  0  0
 24 26  1  0  0  0
 26 27  1  0  0  0
 26 43  1  0  0  0
 27 29  1  0  0  0
 27 28  1  0  0  0
 27 44  1  0  0  0
 28 29  1  0  0  0
 28 45  1  0  0  0
 28 46  1  0  0  0
 29 47  1  0  0  0
 29 48  1  0  0  0
M  CHG  2   6   1  14  -1
M  END
> <s_m_source_file>
/Users/andrea/Development/mcce-charges/epik_inhibitors/output/Lenvatinib/Lenvatinib-input.mol2

> <i_m_source_file_index>
1

> <r_epik_Ionization_Penalty>
 10.5598

> <r_epik_Ionization_Penalty_Charging>
 10.5598

> <r_epik_Ionization_Penalty_Neutral>
  0.0000

> <r_epik_State_Penalty>
 12.5723

> <i_epik_Tot_Q>
0

$$$$
4-[3-chloro-4-(cyclopropylcarbamoylamino)phenoxy]-7-methoxy-quinoline-6-carboxamide
                    3D
 Structure written by MMmdl.
 50 53  0  0  1  0            999 V2000
    6.1704   -8.5147  -13.2904 C   0  0  0  0  0  0
    6.8172   -7.2561  -13.1424 O   0  0  0  0  0  0
    6.2283   -6.3586  -12.3024 C   0  0  0  0  0  0
    6.5870   -6.3565  -10.9522 C   0  0  0  0  0  0
    6.0195   -5.4634  -10.0476 C   0  0  0  0  0  0
    6.3880   -5.4884   -8.7528 N   0  0  0  0  0  0
    5.8123   -4.6037   -7.9067 C   0  0  0  0  0  0
    4.8670   -3.6725   -8.2862 C   0  0  0  0  0  0
    4.4892   -3.6492   -9.6210 C   0  0  0  0  0  0
    5.0609   -4.5484  -10.5312 C   0  0  0  0  0  0
    4.6999   -4.5503  -11.8893 C   0  0  0  0  0  0
    5.2836   -5.4545  -12.7719 C   0  0  0  0  0  0
    4.8929   -5.4367  -14.1745 C   0  0  0  0  0  0
    3.9376   -6.1153  -14.5881 O   0  0  0  0  0  0
    5.6151   -4.6172  -15.0357 N   0  0  0  0  0  0
    3.5553   -2.7339  -10.0112 O   0  0  0  0  0  0
    3.8534   -1.3961   -9.8252 C   0  0  0  0  0  0
    5.1124   -0.9068  -10.1737 C   0  0  0  0  0  0
    5.4124    0.4425   -9.9869 C   0  0  0  0  0  0
    4.4536    1.3026   -9.4516 C   0  0  0  0  0  0
    3.1947    0.8133   -9.1030 C   0  0  0  0  0  0
    2.8946   -0.5361   -9.2898 C   0  0  0  0  0  0
    4.7221    2.6599   -9.2509 N   0  0  0  0  0  0
    3.8713    3.6510   -8.7259 C   0  0  0  0  0  0
    2.7154    3.4841   -8.3443 O   0  3  0  0  0  0
    4.5174    4.8909   -8.6875 N   0  0  0  0  0  0
    3.8864    6.0938   -8.1955 C   0  0  0  0  0  0
    3.8766    6.3978   -6.7359 C   0  0  0  0  0  0
    4.7128    7.2189   -7.6719 C   0  0  0  0  0  0
    6.9846    1.0061  -10.4287 Cl  0  0  0  0  0  0
    6.7432   -9.1413  -13.9899 H   0  0  0  0  0  0
    5.1546   -8.3609  -13.6833 H   0  0  0  0  0  0
    6.1134   -9.0149  -12.3124 H   0  0  0  0  0  0
    7.3293   -7.0726  -10.6022 H   0  0  0  0  0  0
    6.1465   -4.6687   -6.8765 H   0  0  0  0  0  0
    4.4391   -2.9873   -7.5630 H   0  0  0  0  0  0
    3.9608   -3.8457  -12.2662 H   0  0  0  0  0  0
    5.3528   -4.5742  -16.1031 H   0  0  0  0  0  0
    6.4485   -4.0121  -14.6493 H   0  0  0  0  0  0
    5.8530   -1.5861  -10.5895 H   0  0  0  0  0  0
    2.4383    1.4728   -8.6848 H   0  0  0  0  0  0
    1.9117   -0.9114   -9.0185 H   0  0  0  0  0  0
    5.7072    3.0709   -9.5168 H   0  0  0  0  0  0
    5.5537    4.9242   -9.0549 H   0  0  0  0  0  0
    3.1247    5.9748   -8.9801 H   0  0  0  0  0  0
    2.8525    6.6455   -6.4198 H   0  0  0  0  0  0
    4.2308    5.5197   -6.1761 H   0  0  0  0  0  0
    5.7724    7.0334   -7.9017 H   0  0  0  0  0  0
    4.3941    8.1592   -8.1454 H   0  0  0  0  0  0
    2.1385    4.3334   -7.9495 H   0  0  0  0  0  0
  1  2  1  0  0  0
  1 31  1  0  0  0
  1 32  1  0  0  0
  1 33  1  0  0  0
  2  3  1  0  0  0
  3 12  2  0  0  0
  3  4  1  0  0  0
  4  5  2  0  0  0
  4 34  1  0  0  0
  5 10  1  0  0  0
  5  6  1  0  0  0
  6  7  2  0  0  0
  7  8  1  0  0  0
  7 35  1  0  0  0
  8  9  2  0  0  0
  8 36  1  0  0  0
  9 10  1  0  0  0
  9 16  1  0  0  0
 10 11  2  0  0  0
 11 12  1  0  0  0
 11 37  1  0  0  0
 12 13  1  0  0  0
 13 14  2  0  0  0
 13 15  1  0  0  0
 15 38  1  0  0  0
 15 39  1  0  0  0
 16 17  1  0  0  0
 17 22  2  0  0  0
 17 18  1  0  0  0
 18 19  2  0  0  0
 18 40  1  0  0  0
 19 20  1  0  0  0
 19 30  1  0  0  0
 20 21  2  0  0  0
 20 23  1  0  0  0
 21 22  1  0  0  0
 21 41  1  0  0  0
 22 42  1  0  0  0
 23 24  1  0  0  0
 23 43  1  0  0  0
 24 25  2  0  0  0
 24 26  1  0  0  0
 25 50  1  0  0  0
 26 27  1  0  0  0
 26 44  1  0  0  0
 27 29  1  0  0  0
 27 28  1  0  0  0
 27 45  1  0  0  0
 28 29  1  0  0  0
 28 46  1  0  0  0
 28 47  1  0  0  0
 29 48  1  0  0  0
 29 49  1  0  0  0
M  CHG  1  25   1
M  END
> <s_m_source_file>
/Users/andrea/Development/mcce-charges/epik_inhibitors/output/Lenvatinib/Lenvatinib-input.mol2

> <i_m_source_file_index>
1

> <r_epik_Ionization_Penalty>
  6.2961

> <r_epik_Ionization_Penalty_Charging>
  6.2960

> <r_epik_Ionization_Penalty_Neutral>
  0.0001

> <r_epik_State_Penalty>
 12.7184

> <i_epik_Tot_Q>
1

$$$$
4-[3-chloro-4-(cyclopropylcarbamoylamino)phenoxy]-7-methoxy-quinoline-6-carboxamide
                    3D
 Structure written by MMmdl.
 47 50  0  0  1  0            999 V2000
    6.1704   -8.5147  -13.2904 C   0  0  0  0  0  0
    6.8172   -7.2561  -13.1424 O   0  0  0  0  0  0
    6.2283   -6.3586  -12.3024 C   0  0  0  0  0  0
    6.5870   -6.3565  -10.9522 C   0  0  0  0  0  0
    6.0195   -5.4634  -10.0476 C   0  0  0  0  0  0
    6.3880   -5.4884   -8.7528 N   0  0  0  0  0  0
    5.8123   -4.6037   -7.9067 C   0  0  0  0  0  0
    4.8670   -3.6725   -8.2862 C   0  0  0  0  0  0
    4.4892   -3.6492   -9.6210 C   0  0  0  0  0  0
    5.0609   -4.5484  -10.5312 C   0  0  0  0  0  0
    4.6999   -4.5503  -11.8893 C   0  0  0  0  0  0
    5.2836   -5.4545  -12.7719 C   0  0  0  0  0  0
    4.8929   -5.4367  -14.1745 C   0  0  0  0  0  0
    3.9376   -6.1153  -14.5881 O   0  5  0  0  0  0
    5.6151   -4.6172  -15.0357 N   0  0  0  0  0  0
    3.5553   -2.7339  -10.0112 O   0  0  0  0  0  0
    3.8534   -1.3961   -9.8252 C   0  0  0  0  0  0
    5.1124   -0.9068  -10.1737 C   0  0  0  0  0  0
    5.4124    0.4425   -9.9869 C   0  0  0  0  0  0
    4.4536    1.3026   -9.4516 C   0  0  0  0  0  0
    3.1947    0.8133   -9.1030 C   0  0  0  0  0  0
    2.8946   -0.5361   -9.2898 C   0  0  0  0  0  0
    4.7221    2.6599   -9.2509 N   0  0  0  0  0  0
    3.8713    3.6510   -8.7259 C   0  0  0  0  0  0
    2.7154    3.4841   -8.3443 O   0  5  0  0  0  0
    4.5174    4.8909   -8.6875 N   0  0  0  0  0  0
    3.8864    6.0938   -8.1955 C   0  0  0  0  0  0
    3.8766    6.3978   -6.7359 C   0  0  0  0  0  0
    4.7128    7.2189   -7.6719 C   0  0  0  0  0  0
    6.9846    1.0061  -10.4287 Cl  0  0  0  0  0  0
    6.7432   -9.1413  -13.9899 H   0  0  0  0  0  0
    5.1546   -8.3609  -13.6833 H   0  0  0  0  0  0
    6.1134   -9.0149  -12.3124 H   0  0  0  0  0  0
    7.3293   -7.0726  -10.6022 H   0  0  0  0  0  0
    6.1465   -4.6687   -6.8765 H   0  0  0  0  0  0
    4.4391   -2.9873   -7.5630 H   0  0  0  0  0  0
    3.9608   -3.8457  -12.2662 H   0  0  0  0  0  0
    5.3528   -4.5742  -16.1031 H   0  0  0  0  0  0
    5.8001   -1.5235  -10.5567 H   0  0  0  0  0  0
    2.5073    1.4299   -8.7192 H   0  0  0  0  0  0
    1.9914   -0.8865   -9.0417 H   0  0  0  0  0  0
    5.5537    4.9242   -9.0549 H   0  0  0  0  0  0
    3.1247    5.9748   -8.9801 H   0  0  0  0  0  0
    2.8525    6.6455   -6.4198 H   0  0  0  0  0  0
    4.2308    5.5197   -6.1761 H   0  0  0  0  0  0
    5.7724    7.0334   -7.9017 H   0  0  0  0  0  0
    4.3941    8.1592   -8.1454 H   0  0  0  0  0  0
  1  2  1  0  0  0
  1 31  1  0  0  0
  1 32  1  0  0  0
  1 33  1  0  0  0
  2  3  1  0  0  0
  3 12  2  0  0  0
  3  4  1  0  0  0
  4  5  2  0  0  0
  4 34  1  0  0  0
  5 10  1  0  0  0
  5  6  1  0  0  0
  6  7  2  0  0  0
  7  8  1  0  0  0
  7 35  1  0  0  0
  8  9  2  0  0  0
  8 36  1  0  0  0
  9 10  1  0  0  0
  9 16  1  0  0  0
 10 11  2  0  0  0
 11 12  1  0  0  0
 11 37  1  0  0  0
 12 13  1  0  0  0
 13 14  1  0  0  0
 13 15  2  0  0  0
 15 38  1  0  0  0
 16 17  1  0  0  0
 17 22  2  0  0  0
 17 18  1  0  0  0
 18 19  2  0  0  0
 18 39  1  0  0  0
 19 20  1  0  0  0
 19 30  1  0  0  0
 20 21  2  0  0  0
 20 23  1  0  0  0
 21 22  1  0  0  0
 21 40  1  0  0  0
 22 41  1  0  0  0
 23 24  2  0  0  0
 24 25  1  0  0  0
 24 26  1  0  0  0
 26 27  1  0  0  0
 26 42  1  0  0  0
 27 29  1  0  0  0
 27 28  1  0  0  0
 27 43  1  0  0  0
 28 29  1  0  0  0
 28 44  1  0  0  0
 28 45  1  0  0  0
 29 46  1  0  0  0
 29 47  1  0  0  0
M  CHG  2  14  -1  25  -1
M  END
> <s_m_source_file>
/Users/andrea/Development/mcce-charges/epik_inhibitors/output/Lenvatinib/Lenvatinib-input.mol2

> <i_m_source_file_index>
1

> <r_epik_Ionization_Penalty>
 11.9194

> <r_epik_Ionization_Penalty_Charging>
 11.9194

> <r_epik_Ionization_Penalty_Neutral>
  0.0000

> <r_epik_State_Penalty>
 12.7313

> <i_epik_Tot_Q>
-2

$$$$
4-[3-chloro-4-(cyclopropylcarbamoylamino)phenoxy]-7-methoxy-quinoline-6-carboxamide
                    3D
 Structure written by MMmdl.
 47 50  0  0  1  0            999 V2000
    6.1704   -8.5147  -13.2904 C   0  0  0  0  0  0
    6.8172   -7.2561  -13.1424 O   0  0  0  0  0  0
    6.2283   -6.3586  -12.3024 C   0  0  0  0  0  0
    6.5870   -6.3565  -10.9522 C   0  0  0  0  0  0
    6.0195   -5.4634  -10.0476 C   0  0  0  0  0  0
    6.3880   -5.4884   -8.7528 N   0  0  0  0  0  0
    5.8123   -4.6037   -7.9067 C   0  0  0  0  0  0
    4.8670   -3.6725   -8.2862 C   0  0  0  0  0  0
    4.4892   -3.6492   -9.6210 C   0  0  0  0  0  0
    5.0609   -4.5484  -10.5312 C   0  0  0  0  0  0
    4.6999   -4.5503  -11.8893 C   0  0  0  0  0  0
    5.2836   -5.4545  -12.7719 C   0  0  0  0  0  0
    4.8929   -5.4367  -14.1745 C   0  0  0  0  0  0
    3.9376   -6.1153  -14.5881 O   0  5  0  0  0  0
    5.6151   -4.6172  -15.0357 N   0  0  0  0  0  0
    3.5553   -2.7339  -10.0112 O   0  0  0  0  0  0
    3.8534   -1.3961   -9.8252 C   0  0  0  0  0  0
    5.1124   -0.9068  -10.1737 C   0  0  0  0  0  0
    5.4124    0.4425   -9.9869 C   0  0  0  0  0  0
    4.4536    1.3026   -9.4516 C   0  0  0  0  0  0
    3.1947    0.8133   -9.1030 C   0  0  0  0  0  0
    2.8946   -0.5361   -9.2898 C   0  0  0  0  0  0
    4.7221    2.6599   -9.2509 N   0  0  0  0  0  0
    3.8713    3.6510   -8.7259 C   0  0  0  0  0  0
    2.7154    3.4841   -8.3443 O   0  5  0  0  0  0
    4.5174    4.8909   -8.6875 N   0  0  0  0  0  0
    3.8864    6.0938   -8.1955 C   0  0  0  0  0  0
    3.8766    6.3978   -6.7359 C   0  0  0  0  0  0
    4.7128    7.2189   -7.6719 C   0  0  0  0  0  0
    6.9846    1.0061  -10.4287 Cl  0  0  0  0  0  0
    6.7432   -9.1413  -13.9899 H   0  0  0  0  0  0
    5.1546   -8.3609  -13.6833 H   0  0  0  0  0  0
    6.1134   -9.0149  -12.3124 H   0  0  0  0  0  0
    7.3293   -7.0726  -10.6022 H   0  0  0  0  0  0
    6.1465   -4.6687   -6.8765 H   0  0  0  0  0  0
    4.4391   -2.9873   -7.5630 H   0  0  0  0  0  0
    3.9608   -3.8457  -12.2662 H   0  0  0  0  0  0
    6.4485   -4.0121  -14.6493 H   0  0  0  0  0  0
    5.8001   -1.5235  -10.5567 H   0  0  0  0  0  0
    2.5073    1.4299   -8.7192 H   0  0  0  0  0  0
    1.9914   -0.8865   -9.0417 H   0  0  0  0  0  0
    5.5537    4.9242   -9.0549 H   0  0  0  0  0  0
    3.1247    5.9748   -8.9801 H   0  0  0  0  0  0
    2.8525    6.6455   -6.4198 H   0  0  0  0  0  0
    4.2308    5.5197   -6.1761 H   0  0  0  0  0  0
    5.7724    7.0334   -7.9017 H   0  0  0  0  0  0
    4.3941    8.1592   -8.1454 H   0  0  0  0  0  0
  1  2  1  0  0  0
  1 31  1  0  0  0
  1 32  1  0  0  0
  1 33  1  0  0  0
  2  3  1  0  0  0
  3 12  2  0  0  0
  3  4  1  0  0  0
  4  5  2  0  0  0
  4 34  1  0  0  0
  5 10  1  0  0  0
  5  6  1  0  0  0
  6  7  2  0  0  0
  7  8  1  0  0  0
  7 35  1  0  0  0
  8  9  2  0  0  0
  8 36  1  0  0  0
  9 10  1  0  0  0
  9 16  1  0  0  0
 10 11  2  0  0  0
 11 12  1  0  0  0
 11 37  1  0  0  0
 12 13  1  0  0  0
 13 14  1  0  0  0
 13 15  2  0  0  0
 15 38  1  0  0  0
 16 17  1  0  0  0
 17 22  2  0  0  0
 17 18  1  0  0  0
 18 19  2  0  0  0
 18 39  1  0  0  0
 19 20  1  0  0  0
 19 30  1  0  0  0
 20 21  2  0  0  0
 20 23  1  0  0  0
 21 22  1  0  0  0
 21 40  1  0  0  0
 22 41  1  0  0  0
 23 24  2  0  0  0
 24 25  1  0  0  0
 24 26  1  0  0  0
 26 27  1  0  0  0
 26 42  1  0  0  0
 27 29  1  0  0  0
 27 28  1  0  0  0
 27 43  1  0  0  0
 28 29  1  0  0  0
 28 44  1  0  0  0
 28 45  1  0  0  0
 29 46  1  0  0  0
 29 47  1  0  0  0
M  CHG  2  14  -1  25  -1
M  END
> <s_m_source_file>
/Users/andrea/Development/mcce-charges/epik_inhibitors/output/Lenvatinib/Lenvatinib-input.mol2

> <i_m_source_file_index>
1

> <r_epik_Ionization_Penalty>
 11.9194

> <r_epik_Ionization_Penalty_Charging>
 11.9194

> <r_epik_Ionization_Penalty_Neutral>
  0.0000

> <r_epik_State_Penalty>
 12.7313

> <i_epik_Tot_Q>
-2

$$$$
