@<TRIPOS>MOLECULE
4-[3-chloro-4-(cyclopropylcarbamoylamino)phenoxy]-7-methoxy-quinoline-6-carboxamide
   49    52     0     0     0
SMALL
USER_CHARGES

@<TRIPOS>ATOM
      1 C1          6.1704   -8.5147  -13.2904 C.3       1 <0>         0.1143
      2 O1          6.8172   -7.2561  -13.1424 O.3       1 <0>        -0.3540
      3 C2          6.2283   -6.3586  -12.3024 C.ar      1 <0>         0.1351
      4 C3          6.5870   -6.3565  -10.9522 C.ar      1 <0>        -0.1970
      5 C4          6.0195   -5.4634  -10.0476 C.ar      1 <0>         0.4327
      6 N1          6.3880   -5.4884   -8.7528 N.ar      1 <0>        -0.6784
      7 C5          5.8123   -4.6037   -7.9067 C.ar      1 <0>         0.4499
      8 C6          4.8670   -3.6725   -8.2862 C.ar      1 <0>        -0.3323
      9 C7          4.4892   -3.6492   -9.6210 C.ar      1 <0>         0.1748
     10 C8          5.0609   -4.5484  -10.5312 C.ar      1 <0>        -0.1748
     11 C9          4.6999   -4.5503  -11.8893 C.ar      1 <0>        -0.0441
     12 C10         5.2836   -5.4545  -12.7719 C.ar      1 <0>        -0.1563
     13 C11         4.8929   -5.4367  -14.1745 C.2       1 <0>         0.6837
     14 O2          3.9376   -6.1153  -14.5881 O.2       1 <0>        -0.6058
     15 N2          5.6151   -4.6172  -15.0357 N.am      1 <0>        -0.6635
     16 O3          3.5553   -2.7339  -10.0112 O.3       1 <0>        -0.2386
     17 C12         3.8534   -1.3961   -9.8252 C.ar      1 <0>         0.0406
     18 C13         5.1124   -0.9068  -10.1737 C.ar      1 <0>        -0.0911
     19 C14         5.4124    0.4425   -9.9869 C.ar      1 <0>        -0.0477
     20 C15         4.4536    1.3026   -9.4516 C.ar      1 <0>         0.1097
     21 C16         3.1947    0.8133   -9.1030 C.ar      1 <0>        -0.1515
     22 C17         2.8946   -0.5361   -9.2898 C.ar      1 <0>        -0.0938
     23 N3          4.7221    2.6599   -9.2509 N.am      1 <0>        -0.4792
     24 C18         3.8713    3.6510   -8.7259 C.2       1 <0>         0.7786
     25 O4          2.7154    3.4841   -8.3443 O.2       1 <0>        -0.6079
     26 N4          4.5174    4.8909   -8.6875 N.am      1 <0>        -0.5316
     27 C19         3.8864    6.0938   -8.1955 C.3       1 <0>         0.0514
     28 C20         3.8766    6.3978   -6.7359 C.3       1 <0>        -0.1455
     29 C21         4.7128    7.2189   -7.6719 C.3       1 <0>        -0.1455
     30 Cl1         6.9846    1.0061  -10.4287 Cl        1 <0>        -0.0947
     31 H1          6.7432   -9.1413  -13.9899 H         1 <0>         0.0496
     32 H2          5.1546   -8.3609  -13.6833 H         1 <0>         0.0496
     33 H3          6.1134   -9.0149  -12.3124 H         1 <0>         0.0496
     34 H4          7.3293   -7.0726  -10.6022 H         1 <0>         0.1676
     35 H5          6.1465   -4.6687   -6.8765 H         1 <0>         0.0265
     36 H6          4.4391   -2.9873   -7.5630 H         1 <0>         0.1605
     37 H7          3.9608   -3.8457  -12.2662 H         1 <0>         0.1617
     38 H8          5.3528   -4.5742  -16.1031 H         1 <0>         0.3149
     39 H9          6.4485   -4.0121  -14.6493 H         1 <0>         0.3149
     40 H10         5.8530   -1.5861  -10.5895 H         1 <0>         0.1655
     41 H11         2.4383    1.4728   -8.6848 H         1 <0>         0.1899
     42 H12         1.9117   -0.9114   -9.0185 H         1 <0>         0.1596
     43 H13         5.7072    3.0709   -9.5168 H         1 <0>         0.3264
     44 H14         5.5537    4.9242   -9.0549 H         1 <0>         0.3016
     45 H15         3.1247    5.9748   -8.9801 H         1 <0>         0.1112
     46 H16         2.8525    6.6455   -6.4198 H         1 <0>         0.0783
     47 H17         4.2308    5.5197   -6.1761 H         1 <0>         0.0783
     48 H18         5.7724    7.0334   -7.9017 H         1 <0>         0.0783
     49 H19         4.3941    8.1592   -8.1454 H         1 <0>         0.0783
@<TRIPOS>BOND
     1    1    2 1
     2    1   31 1
     3    1   32 1
     4    1   33 1
     5    2    3 1
     6    3   12 ar
     7    3    4 ar
     8    4    5 ar
     9    4   34 1
    10    5   10 ar
    11    5    6 ar
    12    6    7 ar
    13    7    8 ar
    14    7   35 1
    15    8    9 ar
    16    8   36 1
    17    9   10 ar
    18    9   16 1
    19   10   11 ar
    20   11   12 ar
    21   11   37 1
    22   12   13 1
    23   13   14 2
    24   13   15 am
    25   15   38 1
    26   15   39 1
    27   16   17 1
    28   17   22 ar
    29   17   18 ar
    30   18   19 ar
    31   18   40 1
    32   19   20 ar
    33   19   30 1
    34   20   21 ar
    35   20   23 1
    36   21   22 ar
    37   21   41 1
    38   22   42 1
    39   23   24 am
    40   23   43 1
    41   24   25 2
    42   24   26 am
    43   26   27 1
    44   26   44 1
    45   27   29 1
    46   27   28 1
    47   27   45 1
    48   28   29 1
    49   28   46 1
    50   28   47 1
    51   29   48 1
    52   29   49 1
@<TRIPOS>MOLECULE
4-[3-chloro-4-(cyclopropylcarbamoylamino)phenoxy]-7-methoxy-quinoline-6-carboximidate
   48    51     0     0     0
SMALL
USER_CHARGES

@<TRIPOS>ATOM
      1 C1          6.1704   -8.5147  -13.2904 C.3       1 <0>         0.1237
      2 O1          6.8172   -7.2561  -13.1424 O.3       1 <0>        -0.3287
      3 C2          6.2283   -6.3586  -12.3024 C.ar      1 <0>         0.1420
      4 C3          6.5870   -6.3565  -10.9522 C.ar      1 <0>        -0.2294
      5 C4          6.0195   -5.4634  -10.0476 C.ar      1 <0>         0.3951
      6 N1          6.3880   -5.4884   -8.7528 N.ar      1 <0>        -0.6802
      7 C5          5.8123   -4.6037   -7.9067 C.ar      1 <0>         0.4107
      8 C6          4.8670   -3.6725   -8.2862 C.ar      1 <0>        -0.3547
      9 C7          4.4892   -3.6492   -9.6210 C.ar      1 <0>         0.1643
     10 C8          5.0609   -4.5484  -10.5312 C.ar      1 <0>        -0.1541
     11 C9          4.6999   -4.5503  -11.8893 C.ar      1 <0>        -0.0969
     12 C10         5.2836   -5.4545  -12.7719 C.ar      1 <0>        -0.0878
     13 C11         4.8929   -5.4367  -14.1745 C.2       1 <0>         0.8899
     14 O2          3.9376   -6.1153  -14.5881 O.3       1 <0>        -0.9082
     15 N2          5.6151   -4.6172  -15.0357 N.2       1 <0>        -1.0358
     16 O3          3.5553   -2.7339  -10.0112 O.3       1 <0>        -0.2341
     17 C12         3.8534   -1.3961   -9.8252 C.ar      1 <0>         0.0756
     18 C13         5.1124   -0.9068  -10.1737 C.ar      1 <0>        -0.0960
     19 C14         5.4124    0.4425   -9.9869 C.ar      1 <0>        -0.0399
     20 C15         4.4536    1.3026   -9.4516 C.ar      1 <0>         0.0836
     21 C16         3.1947    0.8133   -9.1030 C.ar      1 <0>        -0.1498
     22 C17         2.8946   -0.5361   -9.2898 C.ar      1 <0>        -0.1009
     23 N3          4.7221    2.6599   -9.2509 N.am      1 <0>        -0.4775
     24 C18         3.8713    3.6510   -8.7259 C.2       1 <0>         0.7792
     25 O4          2.7154    3.4841   -8.3443 O.2       1 <0>        -0.6121
     26 N4          4.5174    4.8909   -8.6875 N.am      1 <0>        -0.5392
     27 C19         3.8864    6.0938   -8.1955 C.3       1 <0>         0.0605
     28 C20         3.8766    6.3978   -6.7359 C.3       1 <0>        -0.1501
     29 C21         4.7128    7.2189   -7.6719 C.3       1 <0>        -0.1501
     30 Cl1         6.9846    1.0061  -10.4287 Cl        1 <0>        -0.1143
     31 H1          6.7432   -9.1413  -13.9899 H         1 <0>         0.0329
     32 H2          5.1546   -8.3609  -13.6833 H         1 <0>         0.0329
     33 H3          6.1134   -9.0149  -12.3124 H         1 <0>         0.0329
     34 H4          7.3293   -7.0726  -10.6022 H         1 <0>         0.1420
     35 H5          6.1465   -4.6687   -6.8765 H         1 <0>         0.0020
     36 H6          4.4391   -2.9873   -7.5630 H         1 <0>         0.1391
     37 H7          3.9608   -3.8457  -12.2662 H         1 <0>         0.1594
     38 H8          5.3528   -4.5742  -16.1031 H         1 <0>         0.3307
     39 H9          5.8530   -1.5861  -10.5895 H         1 <0>         0.1712
     40 H10         2.4383    1.4728   -8.6848 H         1 <0>         0.1811
     41 H11         1.9117   -0.9114   -9.0185 H         1 <0>         0.1622
     42 H12         5.7072    3.0709   -9.5168 H         1 <0>         0.3232
     43 H13         5.5537    4.9242   -9.0549 H         1 <0>         0.2957
     44 H14         3.1247    5.9748   -8.9801 H         1 <0>         0.1085
     45 H15         2.8525    6.6455   -6.4198 H         1 <0>         0.0754
     46 H16         4.2308    5.5197   -6.1761 H         1 <0>         0.0754
     47 H17         5.7724    7.0334   -7.9017 H         1 <0>         0.0754
     48 H18         4.3941    8.1592   -8.1454 H         1 <0>         0.0754
@<TRIPOS>BOND
     1    1    2 1
     2    1   31 1
     3    1   32 1
     4    1   33 1
     5    2    3 1
     6    3   12 ar
     7    3    4 ar
     8    4    5 ar
     9    4   34 1
    10    5   10 ar
    11    5    6 ar
    12    6    7 ar
    13    7    8 ar
    14    7   35 1
    15    8    9 ar
    16    8   36 1
    17    9   10 ar
    18    9   16 1
    19   10   11 ar
    20   11   12 ar
    21   11   37 1
    22   12   13 1
    23   13   14 1
    24   13   15 2
    25   15   38 1
    26   16   17 1
    27   17   22 ar
    28   17   18 ar
    29   18   19 ar
    30   18   39 1
    31   19   20 ar
    32   19   30 1
    33   20   21 ar
    34   20   23 1
    35   21   22 ar
    36   21   40 1
    37   22   41 1
    38   23   24 am
    39   23   42 1
    40   24   25 2
    41   24   26 am
    42   26   27 1
    43   26   43 1
    44   27   29 1
    45   27   28 1
    46   27   44 1
    47   28   29 1
    48   28   45 1
    49   28   46 1
    50   29   47 1
    51   29   48 1
@<TRIPOS>MOLECULE
4-[3-chloro-4-(cyclopropylcarbamoylamino)phenoxy]-7-methoxy-quinoline-6-carboximidate
   48    51     0     0     0
SMALL
USER_CHARGES

@<TRIPOS>ATOM
      1 C1          6.1704   -8.5147  -13.2904 C.3       1 <0>         0.1245
      2 O1          6.8172   -7.2561  -13.1424 O.3       1 <0>        -0.3438
      3 C2          6.2283   -6.3586  -12.3024 C.ar      1 <0>         0.1255
      4 C3          6.5870   -6.3565  -10.9522 C.ar      1 <0>        -0.2266
      5 C4          6.0195   -5.4634  -10.0476 C.ar      1 <0>         0.3933
      6 N1          6.3880   -5.4884   -8.7528 N.ar      1 <0>        -0.6795
      7 C5          5.8123   -4.6037   -7.9067 C.ar      1 <0>         0.4124
      8 C6          4.8670   -3.6725   -8.2862 C.ar      1 <0>        -0.3559
      9 C7          4.4892   -3.6492   -9.6210 C.ar      1 <0>         0.1653
     10 C8          5.0609   -4.5484  -10.5312 C.ar      1 <0>        -0.1568
     11 C9          4.6999   -4.5503  -11.8893 C.ar      1 <0>        -0.0901
     12 C10         5.2836   -5.4545  -12.7719 C.ar      1 <0>        -0.1849
     13 C11         4.8929   -5.4367  -14.1745 C.2       1 <0>         0.9289
     14 O2          3.9376   -6.1153  -14.5881 O.3       1 <0>        -0.8447
     15 N2          5.6151   -4.6172  -15.0357 N.2       1 <0>        -1.0236
     16 O3          3.5553   -2.7339  -10.0112 O.3       1 <0>        -0.2336
     17 C12         3.8534   -1.3961   -9.8252 C.ar      1 <0>         0.0747
     18 C13         5.1124   -0.9068  -10.1737 C.ar      1 <0>        -0.0968
     19 C14         5.4124    0.4425   -9.9869 C.ar      1 <0>        -0.0401
     20 C15         4.4536    1.3026   -9.4516 C.ar      1 <0>         0.0853
     21 C16         3.1947    0.8133   -9.1030 C.ar      1 <0>        -0.1499
     22 C17         2.8946   -0.5361   -9.2898 C.ar      1 <0>        -0.0979
     23 N3          4.7221    2.6599   -9.2509 N.am      1 <0>        -0.4777
     24 C18         3.8713    3.6510   -8.7259 C.2       1 <0>         0.7780
     25 O4          2.7154    3.4841   -8.3443 O.2       1 <0>        -0.6119
     26 N4          4.5174    4.8909   -8.6875 N.am      1 <0>        -0.5379
     27 C19         3.8864    6.0938   -8.1955 C.3       1 <0>         0.0589
     28 C20         3.8766    6.3978   -6.7359 C.3       1 <0>        -0.1502
     29 C21         4.7128    7.2189   -7.6719 C.3       1 <0>        -0.1502
     30 Cl1         6.9846    1.0061  -10.4287 Cl        1 <0>        -0.1126
     31 H1          6.7432   -9.1413  -13.9899 H         1 <0>         0.0355
     32 H2          5.1546   -8.3609  -13.6833 H         1 <0>         0.0355
     33 H3          6.1134   -9.0149  -12.3124 H         1 <0>         0.0355
     34 H4          7.3293   -7.0726  -10.6022 H         1 <0>         0.1418
     35 H5          6.1465   -4.6687   -6.8765 H         1 <0>         0.0021
     36 H6          4.4391   -2.9873   -7.5630 H         1 <0>         0.1389
     37 H7          3.9608   -3.8457  -12.2662 H         1 <0>         0.1599
     38 H8          6.4485   -4.0121  -14.6493 H         1 <0>         0.3256
     39 H9          5.8530   -1.5861  -10.5895 H         1 <0>         0.1697
     40 H10         2.4383    1.4728   -8.6848 H         1 <0>         0.1807
     41 H11         1.9117   -0.9114   -9.0185 H         1 <0>         0.1630
     42 H12         5.7072    3.0709   -9.5168 H         1 <0>         0.3233
     43 H13         5.5537    4.9242   -9.0549 H         1 <0>         0.2973
     44 H14         3.1247    5.9748   -8.9801 H         1 <0>         0.1094
     45 H15         2.8525    6.6455   -6.4198 H         1 <0>         0.0750
     46 H16         4.2308    5.5197   -6.1761 H         1 <0>         0.0750
     47 H17         5.7724    7.0334   -7.9017 H         1 <0>         0.0750
     48 H18         4.3941    8.1592   -8.1454 H         1 <0>         0.0750
@<TRIPOS>BOND
     1    1    2 1
     2    1   31 1
     3    1   32 1
     4    1   33 1
     5    2    3 1
     6    3   12 ar
     7    3    4 ar
     8    4    5 ar
     9    4   34 1
    10    5   10 ar
    11    5    6 ar
    12    6    7 ar
    13    7    8 ar
    14    7   35 1
    15    8    9 ar
    16    8   36 1
    17    9   10 ar
    18    9   16 1
    19   10   11 ar
    20   11   12 ar
    21   11   37 1
    22   12   13 1
    23   13   14 1
    24   13   15 2
    25   15   38 1
    26   16   17 1
    27   17   22 ar
    28   17   18 ar
    29   18   19 ar
    30   18   39 1
    31   19   20 ar
    32   19   30 1
    33   20   21 ar
    34   20   23 1
    35   21   22 ar
    36   21   40 1
    37   22   41 1
    38   23   24 am
    39   23   42 1
    40   24   25 2
    41   24   26 am
    42   26   27 1
    43   26   43 1
    44   27   29 1
    45   27   28 1
    46   27   44 1
    47   28   29 1
    48   28   45 1
    49   28   46 1
    50   29   47 1
    51   29   48 1
