@<TRIPOS>MOLECULE
4-[3-chloro-4-(cyclopropylcarbamoylamino)phenoxy]-7-methoxy-quinoline-6-carboxamide
49   52    1
SMALL
USER_CHARGES


@<TRIPOS>ATOM
      1 C1          6.1704   -8.5147  -13.2904 C.3       1 LEN         0.1145 
      2 O1          6.8172   -7.2561  -13.1424 O.3       1 LEN        -0.3541 
      3 C2          6.2283   -6.3586  -12.3024 C.ar      1 LEN         0.1346 
      4 C3          6.5870   -6.3565  -10.9522 C.ar      1 LEN        -0.1972 
      5 C4          6.0195   -5.4634  -10.0476 C.ar      1 LEN         0.4324 
      6 N1          6.3880   -5.4884   -8.7528 N.ar      1 LEN        -0.6779 
      7 C5          5.8123   -4.6037   -7.9067 C.ar      1 LEN         0.4495 
      8 C6          4.8670   -3.6725   -8.2862 C.ar      1 LEN        -0.3320 
      9 C7          4.4892   -3.6492   -9.6210 C.ar      1 LEN         0.1746 
     10 C8          5.0609   -4.5484  -10.5312 C.ar      1 LEN        -0.1742 
     11 C9          4.6999   -4.5503  -11.8893 C.ar      1 LEN        -0.0447 
     12 C10         5.2836   -5.4545  -12.7719 C.ar      1 LEN        -0.1562 
     13 C11         4.8929   -5.4367  -14.1745 C.2       1 LEN         0.6839 
     14 O2          3.9376   -6.1153  -14.5881 O.2       1 LEN        -0.6054 
     15 N2          5.6151   -4.6172  -15.0357 N.am      1 LEN        -0.6641 
     16 O3          3.5553   -2.7339  -10.0112 O.3       1 LEN        -0.2391 
     17 C12         3.8534   -1.3961   -9.8252 C.ar      1 LEN         0.0396 
     18 C13         5.1124   -0.9068  -10.1737 C.ar      1 LEN        -0.0910 
     19 C14         5.4124    0.4425   -9.9869 C.ar      1 LEN        -0.0475 
     20 C15         4.4536    1.3026   -9.4516 C.ar      1 LEN         0.1097 
     21 C16         3.1947    0.8133   -9.1030 C.ar      1 LEN        -0.1506 
     22 C17         2.8946   -0.5361   -9.2898 C.ar      1 LEN        -0.0938 
     23 N3          4.7221    2.6599   -9.2509 N.am      1 LEN        -0.4794 
     24 C18         3.8713    3.6510   -8.7259 C.2       1 LEN         0.7796 
     25 O4          2.7154    3.4841   -8.3443 O.2       1 LEN        -0.6078 
     26 N4          4.5174    4.8909   -8.6875 N.am      1 LEN        -0.5350 
     27 C19         3.8864    6.0938   -8.1955 C.3       1 LEN         0.0537 
     28 C20         3.8766    6.3978   -6.7359 C.3       1 LEN        -0.1458 
     29 C21         4.7128    7.2189   -7.6719 C.3       1 LEN        -0.1458 
     30 Cl1         6.9846    1.0061  -10.4287 Cl        1 LEN        -0.0955 
     31 H1          6.7432   -9.1413  -13.9899 H         1 LEN         0.0495 
     32 H2          5.1546   -8.3609  -13.6833 H         1 LEN         0.0495 
     33 H3          6.1134   -9.0149  -12.3124 H         1 LEN         0.0495 
     34 H4          7.3293   -7.0726  -10.6022 H         1 LEN         0.1676 
     35 H5          6.1465   -4.6687   -6.8765 H         1 LEN         0.0265 
     36 H6          4.4391   -2.9873   -7.5630 H         1 LEN         0.1607 
     37 H7          3.9608   -3.8457  -12.2662 H         1 LEN         0.1620 
     38 H8          5.3528   -4.5742  -16.1031 H         1 LEN         0.3154 
     39 H9          6.4485   -4.0121  -14.6493 H         1 LEN         0.3154 
     40 H10         5.8530   -1.5861  -10.5895 H         1 LEN         0.1660 
     41 H11         2.4383    1.4728   -8.6848 H         1 LEN         0.1897 
     42 H12         1.9117   -0.9114   -9.0185 H         1 LEN         0.1596 
     43 H13         5.7072    3.0709   -9.5168 H         1 LEN         0.3267 
     44 H14         5.5537    4.9242   -9.0549 H         1 LEN         0.3027 
     45 H15         3.1247    5.9748   -8.9801 H         1 LEN         0.1112 
     46 H16         2.8525    6.6455   -6.4198 H         1 LEN         0.0782 
     47 H17         4.2308    5.5197   -6.1761 H         1 LEN         0.0782 
     48 H18         5.7724    7.0334   -7.9017 H         1 LEN         0.0782 
     49 H19         4.3941    8.1592   -8.1454 H         1 LEN         0.0782 
@<TRIPOS>BOND
     1    1    2 1    
     2    1   31 1    
     3    1   32 1    
     4    1   33 1    
     5    2    3 1    
     6    3   12 ar   
     7    3    4 ar   
     8    4    5 ar   
     9    4   34 1    
    10    5   10 ar   
    11    5    6 ar   
    12    6    7 ar   
    13    7    8 ar   
    14    7   35 1    
    15    8    9 ar   
    16    8   36 1    
    17    9   10 ar   
    18    9   16 1    
    19   10   11 ar   
    20   11   12 ar   
    21   11   37 1    
    22   12   13 1    
    23   13   14 2    
    24   13   15 am   BACKBONE|DICT|INTERRES
    25   15   38 1    
    26   15   39 1    
    27   16   17 1    
    28   17   22 ar   
    29   17   18 ar   
    30   18   19 ar   
    31   18   40 1    
    32   19   20 ar   
    33   19   30 1    
    34   20   21 ar   
    35   20   23 1    
    36   21   22 ar   
    37   21   41 1    
    38   22   42 1    
    39   23   24 am   BACKBONE|DICT|INTERRES
    40   23   43 1    
    41   24   25 2    
    42   24   26 am   BACKBONE|DICT|INTERRES
    43   26   27 1    
    44   26   44 1    
    45   27   29 1    
    46   27   28 1    
    47   27   45 1    
    48   28   29 1    
    49   28   46 1    
    50   28   47 1    
    51   29   48 1    
    52   29   49 1    
@<TRIPOS>SUBSTRUCTURE
     1 LEN         1 GROUP             0       ****    0 ROOT    
@<TRIPOS>MOLECULE
4-[3-chloro-4-(cyclopropylcarbamoylamino)phenoxy]-7-methoxy-quinoline-6-carboxamide
48   51    1
SMALL
USER_CHARGES


@<TRIPOS>ATOM
      1 C1          6.1704   -8.5147  -13.2904 C.3       1 LEN         0.1145 
      2 O1          6.8172   -7.2561  -13.1424 O.3       1 LEN        -0.3541 
      3 C2          6.2283   -6.3586  -12.3024 C.ar      1 LEN         0.1346 
      4 C3          6.5870   -6.3565  -10.9522 C.ar      1 LEN        -0.1972 
      5 C4          6.0195   -5.4634  -10.0476 C.ar      1 LEN         0.4324 
      6 N1          6.3880   -5.4884   -8.7528 N.ar      1 LEN        -0.6779 
      7 C5          5.8123   -4.6037   -7.9067 C.ar      1 LEN         0.4495 
      8 C6          4.8670   -3.6725   -8.2862 C.ar      1 LEN        -0.3320 
      9 C7          4.4892   -3.6492   -9.6210 C.ar      1 LEN         0.1746 
     10 C8          5.0609   -4.5484  -10.5312 C.ar      1 LEN        -0.1742 
     11 C9          4.6999   -4.5503  -11.8893 C.ar      1 LEN        -0.0447 
     12 C10         5.2836   -5.4545  -12.7719 C.ar      1 LEN        -0.1562 
     13 C11         4.8929   -5.4367  -14.1745 C.2       1 LEN         0.6839 
     14 O2          3.9376   -6.1153  -14.5881 O.co2     1 LEN        -0.6054 
     15 N2          5.6151   -4.6172  -15.0357 N.2       1 LEN        -0.6641 
     16 O3          3.5553   -2.7339  -10.0112 O.3       1 LEN        -0.2391 
     17 C12         3.8534   -1.3961   -9.8252 C.ar      1 LEN         0.0396 
     18 C13         5.1124   -0.9068  -10.1737 C.ar      1 LEN        -0.0910 
     19 C14         5.4124    0.4425   -9.9869 C.ar      1 LEN        -0.0475 
     20 C15         4.4536    1.3026   -9.4516 C.ar      1 LEN         0.1097 
     21 C16         3.1947    0.8133   -9.1030 C.ar      1 LEN        -0.1506 
     22 C17         2.8946   -0.5361   -9.2898 C.ar      1 LEN        -0.0938 
     23 N3          4.7221    2.6599   -9.2509 N.am      1 LEN        -0.4794 
     24 C18         3.8713    3.6510   -8.7259 C.2       1 LEN         0.7796 
     25 O4          2.7154    3.4841   -8.3443 O.2       1 LEN        -0.6078 
     26 N4          4.5174    4.8909   -8.6875 N.am      1 LEN        -0.5350 
     27 C19         3.8864    6.0938   -8.1955 C.3       1 LEN         0.0537 
     28 C20         3.8766    6.3978   -6.7359 C.3       1 LEN        -0.1458 
     29 C21         4.7128    7.2189   -7.6719 C.3       1 LEN        -0.1458 
     30 Cl1         6.9846    1.0061  -10.4287 Cl        1 LEN        -0.0955 
     31 H1          6.7432   -9.1413  -13.9899 H         1 LEN         0.0495 
     32 H2          5.1546   -8.3609  -13.6833 H         1 LEN         0.0495 
     33 H3          6.1134   -9.0149  -12.3124 H         1 LEN         0.0495 
     34 H4          7.3293   -7.0726  -10.6022 H         1 LEN         0.1676 
     35 H5          6.1465   -4.6687   -6.8765 H         1 LEN         0.0265 
     36 H6          4.4391   -2.9873   -7.5630 H         1 LEN         0.1607 
     37 H7          3.9608   -3.8457  -12.2662 H         1 LEN         0.1620 
     38 H9          5.3528   -4.5742  -16.1031 H         1 LEN         0.3154 
     39 H10         5.8001   -1.5235  -10.5567 H         1 LEN         0.1660 
     40 H11         2.5073    1.4299   -8.7192 H         1 LEN         0.1897 
     41 H12         1.9914   -0.8865   -9.0417 H         1 LEN         0.1596 
     42 H13         5.7072    3.0709   -9.5168 H         1 LEN         0.3267 
     43 H14         5.5537    4.9242   -9.0549 H         1 LEN         0.3027 
     44 H15         3.1247    5.9748   -8.9801 H         1 LEN         0.1112 
     45 H16         2.8525    6.6455   -6.4198 H         1 LEN         0.0782 
     46 H17         4.2308    5.5197   -6.1761 H         1 LEN         0.0782 
     47 H18         5.7724    7.0334   -7.9017 H         1 LEN         0.0782 
     48 H19         4.3941    8.1592   -8.1454 H         1 LEN         0.0782 
@<TRIPOS>BOND
     1    1    2 1    
     2    1   31 1    
     3    1   32 1    
     4    1   33 1    
     5    2    3 1    
     6    3   12 ar   
     7    3    4 ar   
     8    4    5 ar   
     9    4   34 1    
    10    5   10 ar   
    11    5    6 ar   
    12    6    7 ar   
    13    7    8 ar   
    14    7   35 1    
    15    8    9 ar   
    16    8   36 1    
    17    9   10 ar   
    18    9   16 1    
    19   10   11 ar   
    20   11   12 ar   
    21   11   37 1    
    22   12   13 1    
    23   13   14 1    
    24   13   15 2    
    25   15   38 1    
    26   16   17 1    
    27   17   22 ar   
    28   17   18 ar   
    29   18   19 ar   
    30   18   39 1    
    31   19   20 ar   
    32   19   30 1    
    33   20   21 ar   
    34   20   23 1    
    35   21   22 ar   
    36   21   40 1    
    37   22   41 1    
    38   23   24 am   BACKBONE|DICT|INTERRES
    39   23   42 1    
    40   24   25 2    
    41   24   26 am   BACKBONE|DICT|INTERRES
    42   26   27 1    
    43   26   43 1    
    44   27   29 1    
    45   27   28 1    
    46   27   44 1    
    47   28   29 1    
    48   28   45 1    
    49   28   46 1    
    50   29   47 1    
    51   29   48 1    
@<TRIPOS>SUBSTRUCTURE
     1 LEN         1 GROUP             0       ****    0 ROOT    
@<TRIPOS>MOLECULE
4-[3-chloro-4-(cyclopropylcarbamoylamino)phenoxy]-7-methoxy-quinoline-6-carboxamide
48   51    1
SMALL
USER_CHARGES


@<TRIPOS>ATOM
      1 C1          6.1704   -8.5147  -13.2904 C.3       1 LEN         0.1145 
      2 O1          6.8172   -7.2561  -13.1424 O.3       1 LEN        -0.3541 
      3 C2          6.2283   -6.3586  -12.3024 C.ar      1 LEN         0.1346 
      4 C3          6.5870   -6.3565  -10.9522 C.ar      1 LEN        -0.1972 
      5 C4          6.0195   -5.4634  -10.0476 C.ar      1 LEN         0.4324 
      6 N1          6.3880   -5.4884   -8.7528 N.ar      1 LEN        -0.6779 
      7 C5          5.8123   -4.6037   -7.9067 C.ar      1 LEN         0.4495 
      8 C6          4.8670   -3.6725   -8.2862 C.ar      1 LEN        -0.3320 
      9 C7          4.4892   -3.6492   -9.6210 C.ar      1 LEN         0.1746 
     10 C8          5.0609   -4.5484  -10.5312 C.ar      1 LEN        -0.1742 
     11 C9          4.6999   -4.5503  -11.8893 C.ar      1 LEN        -0.0447 
     12 C10         5.2836   -5.4545  -12.7719 C.ar      1 LEN        -0.1562 
     13 C11         4.8929   -5.4367  -14.1745 C.2       1 LEN         0.6839 
     14 O2          3.9376   -6.1153  -14.5881 O.co2     1 LEN        -0.6054 
     15 N2          5.6151   -4.6172  -15.0357 N.2       1 LEN        -0.6641 
     16 O3          3.5553   -2.7339  -10.0112 O.3       1 LEN        -0.2391 
     17 C12         3.8534   -1.3961   -9.8252 C.ar      1 LEN         0.0396 
     18 C13         5.1124   -0.9068  -10.1737 C.ar      1 LEN        -0.0910 
     19 C14         5.4124    0.4425   -9.9869 C.ar      1 LEN        -0.0475 
     20 C15         4.4536    1.3026   -9.4516 C.ar      1 LEN         0.1097 
     21 C16         3.1947    0.8133   -9.1030 C.ar      1 LEN        -0.1506 
     22 C17         2.8946   -0.5361   -9.2898 C.ar      1 LEN        -0.0938 
     23 N3          4.7221    2.6599   -9.2509 N.am      1 LEN        -0.4794 
     24 C18         3.8713    3.6510   -8.7259 C.2       1 LEN         0.7796 
     25 O4          2.7154    3.4841   -8.3443 O.2       1 LEN        -0.6078 
     26 N4          4.5174    4.8909   -8.6875 N.am      1 LEN        -0.5350 
     27 C19         3.8864    6.0938   -8.1955 C.3       1 LEN         0.0537 
     28 C20         3.8766    6.3978   -6.7359 C.3       1 LEN        -0.1458 
     29 C21         4.7128    7.2189   -7.6719 C.3       1 LEN        -0.1458 
     30 Cl1         6.9846    1.0061  -10.4287 Cl        1 LEN        -0.0955 
     31 H1          6.7432   -9.1413  -13.9899 H         1 LEN         0.0495 
     32 H2          5.1546   -8.3609  -13.6833 H         1 LEN         0.0495 
     33 H3          6.1134   -9.0149  -12.3124 H         1 LEN         0.0495 
     34 H4          7.3293   -7.0726  -10.6022 H         1 LEN         0.1676 
     35 H5          6.1465   -4.6687   -6.8765 H         1 LEN         0.0265 
     36 H6          4.4391   -2.9873   -7.5630 H         1 LEN         0.1607 
     37 H7          3.9608   -3.8457  -12.2662 H         1 LEN         0.1620 
     38 H8          6.4485   -4.0121  -14.6493 H         1 LEN         0.3154 
     39 H10         5.8001   -1.5235  -10.5567 H         1 LEN         0.1660 
     40 H11         2.5073    1.4299   -8.7192 H         1 LEN         0.1897 
     41 H12         1.9914   -0.8865   -9.0417 H         1 LEN         0.1596 
     42 H13         5.7072    3.0709   -9.5168 H         1 LEN         0.3267 
     43 H14         5.5537    4.9242   -9.0549 H         1 LEN         0.3027 
     44 H15         3.1247    5.9748   -8.9801 H         1 LEN         0.1112 
     45 H16         2.8525    6.6455   -6.4198 H         1 LEN         0.0782 
     46 H17         4.2308    5.5197   -6.1761 H         1 LEN         0.0782 
     47 H18         5.7724    7.0334   -7.9017 H         1 LEN         0.0782 
     48 H19         4.3941    8.1592   -8.1454 H         1 LEN         0.0782 
@<TRIPOS>BOND
     1    1    2 1    
     2    1   31 1    
     3    1   32 1    
     4    1   33 1    
     5    2    3 1    
     6    3   12 ar   
     7    3    4 ar   
     8    4    5 ar   
     9    4   34 1    
    10    5   10 ar   
    11    5    6 ar   
    12    6    7 ar   
    13    7    8 ar   
    14    7   35 1    
    15    8    9 ar   
    16    8   36 1    
    17    9   10 ar   
    18    9   16 1    
    19   10   11 ar   
    20   11   12 ar   
    21   11   37 1    
    22   12   13 1    
    23   13   14 1    
    24   13   15 2    
    25   15   38 1    
    26   16   17 1    
    27   17   22 ar   
    28   17   18 ar   
    29   18   19 ar   
    30   18   39 1    
    31   19   20 ar   
    32   19   30 1    
    33   20   21 ar   
    34   20   23 1    
    35   21   22 ar   
    36   21   40 1    
    37   22   41 1    
    38   23   24 am   BACKBONE|DICT|INTERRES
    39   23   42 1    
    40   24   25 2    
    41   24   26 am   BACKBONE|DICT|INTERRES
    42   26   27 1    
    43   26   43 1    
    44   27   29 1    
    45   27   28 1    
    46   27   44 1    
    47   28   29 1    
    48   28   45 1    
    49   28   46 1    
    50   29   47 1    
    51   29   48 1    
@<TRIPOS>SUBSTRUCTURE
     1 LEN         1 GROUP             0       ****    0 ROOT    
@<TRIPOS>MOLECULE
4-[3-chloro-4-(cyclopropylcarbamoylamino)phenoxy]-7-methoxy-quinoline-6-carboxamide
48   51    1
SMALL
USER_CHARGES


@<TRIPOS>ATOM
      1 C1          6.1704   -8.5147  -13.2904 C.3       1 LEN         0.1145 
      2 O1          6.8172   -7.2561  -13.1424 O.3       1 LEN        -0.3541 
      3 C2          6.2283   -6.3586  -12.3024 C.ar      1 LEN         0.1346 
      4 C3          6.5870   -6.3565  -10.9522 C.ar      1 LEN        -0.1972 
      5 C4          6.0195   -5.4634  -10.0476 C.ar      1 LEN         0.4324 
      6 N1          6.3880   -5.4884   -8.7528 N.ar      1 LEN        -0.6779 
      7 C5          5.8123   -4.6037   -7.9067 C.ar      1 LEN         0.4495 
      8 C6          4.8670   -3.6725   -8.2862 C.ar      1 LEN        -0.3320 
      9 C7          4.4892   -3.6492   -9.6210 C.ar      1 LEN         0.1746 
     10 C8          5.0609   -4.5484  -10.5312 C.ar      1 LEN        -0.1742 
     11 C9          4.6999   -4.5503  -11.8893 C.ar      1 LEN        -0.0447 
     12 C10         5.2836   -5.4545  -12.7719 C.ar      1 LEN        -0.1562 
     13 C11         4.8929   -5.4367  -14.1745 C.2       1 LEN         0.6839 
     14 O2          3.9376   -6.1153  -14.5881 O.2       1 LEN        -0.6054 
     15 N2          5.6151   -4.6172  -15.0357 N.am      1 LEN        -0.6641 
     16 O3          3.5553   -2.7339  -10.0112 O.3       1 LEN        -0.2391 
     17 C12         3.8534   -1.3961   -9.8252 C.ar      1 LEN         0.0396 
     18 C13         5.1124   -0.9068  -10.1737 C.ar      1 LEN        -0.0910 
     19 C14         5.4124    0.4425   -9.9869 C.ar      1 LEN        -0.0475 
     20 C15         4.4536    1.3026   -9.4516 C.ar      1 LEN         0.1097 
     21 C16         3.1947    0.8133   -9.1030 C.ar      1 LEN        -0.1506 
     22 C17         2.8946   -0.5361   -9.2898 C.ar      1 LEN        -0.0938 
     23 N3          4.7221    2.6599   -9.2509 N.2       1 LEN        -0.4794 
     24 C18         3.8713    3.6510   -8.7259 C.2       1 LEN         0.7796 
     25 O4          2.7154    3.4841   -8.3443 O.co2     1 LEN        -0.6078 
     26 N4          4.5174    4.8909   -8.6875 N.pl3     1 LEN        -0.5350 
     27 C19         3.8864    6.0938   -8.1955 C.3       1 LEN         0.0537 
     28 C20         3.8766    6.3978   -6.7359 C.3       1 LEN        -0.1458 
     29 C21         4.7128    7.2189   -7.6719 C.3       1 LEN        -0.1458 
     30 Cl1         6.9846    1.0061  -10.4287 Cl        1 LEN        -0.0955 
     31 H1          6.7432   -9.1413  -13.9899 H         1 LEN         0.0495 
     32 H2          5.1546   -8.3609  -13.6833 H         1 LEN         0.0495 
     33 H3          6.1134   -9.0149  -12.3124 H         1 LEN         0.0495 
     34 H4          7.3293   -7.0726  -10.6022 H         1 LEN         0.1676 
     35 H5          6.1465   -4.6687   -6.8765 H         1 LEN         0.0265 
     36 H6          4.4391   -2.9873   -7.5630 H         1 LEN         0.1607 
     37 H7          3.9608   -3.8457  -12.2662 H         1 LEN         0.1620 
     38 H8          5.3528   -4.5742  -16.1031 H         1 LEN         0.3154 
     39 H9          6.4485   -4.0121  -14.6493 H         1 LEN         0.3154 
     40 H10         5.8530   -1.5861  -10.5895 H         1 LEN         0.1660 
     41 H11         2.4383    1.4728   -8.6848 H         1 LEN         0.1897 
     42 H12         1.9117   -0.9114   -9.0185 H         1 LEN         0.1596 
     43 H14         5.5537    4.9242   -9.0549 H         1 LEN         0.3027 
     44 H15         3.1247    5.9748   -8.9801 H         1 LEN         0.1112 
     45 H16         2.8525    6.6455   -6.4198 H         1 LEN         0.0782 
     46 H17         4.2308    5.5197   -6.1761 H         1 LEN         0.0782 
     47 H18         5.7724    7.0334   -7.9017 H         1 LEN         0.0782 
     48 H19         4.3941    8.1592   -8.1454 H         1 LEN         0.0782 
@<TRIPOS>BOND
     1    1    2 1    
     2    1   31 1    
     3    1   32 1    
     4    1   33 1    
     5    2    3 1    
     6    3   12 ar   
     7    3    4 ar   
     8    4    5 ar   
     9    4   34 1    
    10    5   10 ar   
    11    5    6 ar   
    12    6    7 ar   
    13    7    8 ar   
    14    7   35 1    
    15    8    9 ar   
    16    8   36 1    
    17    9   10 ar   
    18    9   16 1    
    19   10   11 ar   
    20   11   12 ar   
    21   11   37 1    
    22   12   13 1    
    23   13   14 2    
    24   13   15 am   BACKBONE|DICT|INTERRES
    25   15   38 1    
    26   15   39 1    
    27   16   17 1    
    28   17   22 ar   
    29   17   18 ar   
    30   18   19 ar   
    31   18   40 1    
    32   19   20 ar   
    33   19   30 1    
    34   20   21 ar   
    35   20   23 1    
    36   21   22 ar   
    37   21   41 1    
    38   22   42 1    
    39   23   24 2    
    40   24   25 1    
    41   24   26 1    
    42   26   27 1    
    43   26   43 1    
    44   27   29 1    
    45   27   28 1    
    46   27   44 1    
    47   28   29 1    
    48   28   45 1    
    49   28   46 1    
    50   29   47 1    
    51   29   48 1    
@<TRIPOS>SUBSTRUCTURE
     1 LEN         1 GROUP             0       ****    0 ROOT    
@<TRIPOS>MOLECULE
4-[3-chloro-4-(cyclopropylcarbamoylamino)phenoxy]-7-methoxy-quinoline-6-carboxamide
50   53    1
SMALL
USER_CHARGES


@<TRIPOS>ATOM
      1 C1          6.1704   -8.5147  -13.2904 C.3       1 LEN         0.1145 
      2 O1          6.8172   -7.2561  -13.1424 O.3       1 LEN        -0.3541 
      3 C2          6.2283   -6.3586  -12.3024 C.ar      1 LEN         0.1346 
      4 C3          6.5870   -6.3565  -10.9522 C.ar      1 LEN        -0.1972 
      5 C4          6.0195   -5.4634  -10.0476 C.ar      1 LEN         0.4324 
      6 N1          6.3880   -5.4884   -8.7528 N.pl3     1 LEN        -0.6779 
      7 C5          5.8123   -4.6037   -7.9067 C.ar      1 LEN         0.4495 
      8 C6          4.8670   -3.6725   -8.2862 C.ar      1 LEN        -0.3320 
      9 C7          4.4892   -3.6492   -9.6210 C.ar      1 LEN         0.1746 
     10 C8          5.0609   -4.5484  -10.5312 C.ar      1 LEN        -0.1742 
     11 C9          4.6999   -4.5503  -11.8893 C.ar      1 LEN        -0.0447 
     12 C10         5.2836   -5.4545  -12.7719 C.ar      1 LEN        -0.1562 
     13 C11         4.8929   -5.4367  -14.1745 C.2       1 LEN         0.6839 
     14 O2          3.9376   -6.1153  -14.5881 O.2       1 LEN        -0.6054 
     15 N2          5.6151   -4.6172  -15.0357 N.am      1 LEN        -0.6641 
     16 O3          3.5553   -2.7339  -10.0112 O.3       1 LEN        -0.2391 
     17 C12         3.8534   -1.3961   -9.8252 C.ar      1 LEN         0.0396 
     18 C13         5.1124   -0.9068  -10.1737 C.ar      1 LEN        -0.0910 
     19 C14         5.4124    0.4425   -9.9869 C.ar      1 LEN        -0.0475 
     20 C15         4.4536    1.3026   -9.4516 C.ar      1 LEN         0.1097 
     21 C16         3.1947    0.8133   -9.1030 C.ar      1 LEN        -0.1506 
     22 C17         2.8946   -0.5361   -9.2898 C.ar      1 LEN        -0.0938 
     23 N3          4.7221    2.6599   -9.2509 N.am      1 LEN        -0.4794 
     24 C18         3.8713    3.6510   -8.7259 C.2       1 LEN         0.7796 
     25 O4          2.7154    3.4841   -8.3443 O.2       1 LEN        -0.6078 
     26 N4          4.5174    4.8909   -8.6875 N.am      1 LEN        -0.5350 
     27 C19         3.8864    6.0938   -8.1955 C.3       1 LEN         0.0537 
     28 C20         3.8766    6.3978   -6.7359 C.3       1 LEN        -0.1458 
     29 C21         4.7128    7.2189   -7.6719 C.3       1 LEN        -0.1458 
     30 Cl1         6.9846    1.0061  -10.4287 Cl        1 LEN        -0.0955 
     31 H1          6.7432   -9.1413  -13.9899 H         1 LEN         0.0495 
     32 H2          5.1546   -8.3609  -13.6833 H         1 LEN         0.0495 
     33 H3          6.1134   -9.0149  -12.3124 H         1 LEN         0.0495 
     34 H4          7.3293   -7.0726  -10.6022 H         1 LEN         0.1676 
     35 H5          6.1465   -4.6687   -6.8765 H         1 LEN         0.0265 
     36 H6          4.4391   -2.9873   -7.5630 H         1 LEN         0.1607 
     37 H7          3.9608   -3.8457  -12.2662 H         1 LEN         0.1620 
     38 H8          5.3528   -4.5742  -16.1031 H         1 LEN         0.3154 
     39 H9          6.4485   -4.0121  -14.6493 H         1 LEN         0.3154 
     40 H10         5.8530   -1.5861  -10.5895 H         1 LEN         0.1660 
     41 H11         2.4383    1.4728   -8.6848 H         1 LEN         0.1897 
     42 H12         1.9117   -0.9114   -9.0185 H         1 LEN         0.1596 
     43 H13         5.7072    3.0709   -9.5168 H         1 LEN         0.3267 
     44 H14         5.5537    4.9242   -9.0549 H         1 LEN         0.3027 
     45 H15         3.1247    5.9748   -8.9801 H         1 LEN         0.1112 
     46 H16         2.8525    6.6455   -6.4198 H         1 LEN         0.0782 
     47 H17         4.2308    5.5197   -6.1761 H         1 LEN         0.0782 
     48 H18         5.7724    7.0334   -7.9017 H         1 LEN         0.0782 
     49 H19         4.3941    8.1592   -8.1454 H         1 LEN         0.0782 
     50 H50         7.1385   -6.2151   -8.4085 H         1 LEN         0.0000 
@<TRIPOS>BOND
     1    1    2 1    
     2    1   31 1    
     3    1   32 1    
     4    1   33 1    
     5    2    3 1    
     6    3   12 ar   
     7    3    4 ar   
     8    4    5 ar   
     9    4   34 1    
    10    5   10 ar   
    11    5    6 ar   
    12    6    7 ar   
    13    6   50 1    
    14    7    8 ar   
    15    7   35 1    
    16    8    9 ar   
    17    8   36 1    
    18    9   10 ar   
    19    9   16 1    
    20   10   11 ar   
    21   11   12 ar   
    22   11   37 1    
    23   12   13 1    
    24   13   14 2    
    25   13   15 am   BACKBONE|DICT|INTERRES
    26   15   38 1    
    27   15   39 1    
    28   16   17 1    
    29   17   22 ar   
    30   17   18 ar   
    31   18   19 ar   
    32   18   40 1    
    33   19   20 ar   
    34   19   30 1    
    35   20   21 ar   
    36   20   23 1    
    37   21   22 ar   
    38   21   41 1    
    39   22   42 1    
    40   23   24 am   BACKBONE|DICT|INTERRES
    41   23   43 1    
    42   24   25 2    
    43   24   26 am   BACKBONE|DICT|INTERRES
    44   26   27 1    
    45   26   44 1    
    46   27   29 1    
    47   27   28 1    
    48   27   45 1    
    49   28   29 1    
    50   28   46 1    
    51   28   47 1    
    52   29   48 1    
    53   29   49 1    
@<TRIPOS>SUBSTRUCTURE
     1 LEN         1 GROUP             0       ****    0 ROOT    
@<TRIPOS>MOLECULE
4-[3-chloro-4-(cyclopropylcarbamoylamino)phenoxy]-7-methoxy-quinoline-6-carboxamide
48   51    1
SMALL
USER_CHARGES


@<TRIPOS>ATOM
      1 C1          6.1704   -8.5147  -13.2904 C.3       1 LEN         0.1145 
      2 O1          6.8172   -7.2561  -13.1424 O.3       1 LEN        -0.3541 
      3 C2          6.2283   -6.3586  -12.3024 C.ar      1 LEN         0.1346 
      4 C3          6.5870   -6.3565  -10.9522 C.ar      1 LEN        -0.1972 
      5 C4          6.0195   -5.4634  -10.0476 C.ar      1 LEN         0.4324 
      6 N1          6.3880   -5.4884   -8.7528 N.ar      1 LEN        -0.6779 
      7 C5          5.8123   -4.6037   -7.9067 C.ar      1 LEN         0.4495 
      8 C6          4.8670   -3.6725   -8.2862 C.ar      1 LEN        -0.3320 
      9 C7          4.4892   -3.6492   -9.6210 C.ar      1 LEN         0.1746 
     10 C8          5.0609   -4.5484  -10.5312 C.ar      1 LEN        -0.1742 
     11 C9          4.6999   -4.5503  -11.8893 C.ar      1 LEN        -0.0447 
     12 C10         5.2836   -5.4545  -12.7719 C.ar      1 LEN        -0.1562 
     13 C11         4.8929   -5.4367  -14.1745 C.2       1 LEN         0.6839 
     14 O2          3.9376   -6.1153  -14.5881 O.2       1 LEN        -0.6054 
     15 N2          5.6151   -4.6172  -15.0357 N.am      1 LEN        -0.6641 
     16 O3          3.5553   -2.7339  -10.0112 O.3       1 LEN        -0.2391 
     17 C12         3.8534   -1.3961   -9.8252 C.ar      1 LEN         0.0396 
     18 C13         5.1124   -0.9068  -10.1737 C.ar      1 LEN        -0.0910 
     19 C14         5.4124    0.4425   -9.9869 C.ar      1 LEN        -0.0475 
     20 C15         4.4536    1.3026   -9.4516 C.ar      1 LEN         0.1097 
     21 C16         3.1947    0.8133   -9.1030 C.ar      1 LEN        -0.1506 
     22 C17         2.8946   -0.5361   -9.2898 C.ar      1 LEN        -0.0938 
     23 N3          4.7221    2.6599   -9.2509 N.pl3     1 LEN        -0.4794 
     24 C18         3.8713    3.6510   -8.7259 C.2       1 LEN         0.7796 
     25 O4          2.7154    3.4841   -8.3443 O.co2     1 LEN        -0.6078 
     26 N4          4.5174    4.8909   -8.6875 N.2       1 LEN        -0.5350 
     27 C19         3.8864    6.0938   -8.1955 C.3       1 LEN         0.0537 
     28 C20         3.8766    6.3978   -6.7359 C.3       1 LEN        -0.1458 
     29 C21         4.7128    7.2189   -7.6719 C.3       1 LEN        -0.1458 
     30 Cl1         6.9846    1.0061  -10.4287 Cl        1 LEN        -0.0955 
     31 H1          6.7432   -9.1413  -13.9899 H         1 LEN         0.0495 
     32 H2          5.1546   -8.3609  -13.6833 H         1 LEN         0.0495 
     33 H3          6.1134   -9.0149  -12.3124 H         1 LEN         0.0495 
     34 H4          7.3293   -7.0726  -10.6022 H         1 LEN         0.1676 
     35 H5          6.1465   -4.6687   -6.8765 H         1 LEN         0.0265 
     36 H6          4.4391   -2.9873   -7.5630 H         1 LEN         0.1607 
     37 H7          3.9608   -3.8457  -12.2662 H         1 LEN         0.1620 
     38 H8          5.3528   -4.5742  -16.1031 H         1 LEN         0.3154 
     39 H9          6.4485   -4.0121  -14.6493 H         1 LEN         0.3154 
     40 H10         5.8530   -1.5861  -10.5895 H         1 LEN         0.1660 
     41 H11         2.4383    1.4728   -8.6848 H         1 LEN         0.1897 
     42 H12         1.9117   -0.9114   -9.0185 H         1 LEN         0.1596 
     43 H13         5.7072    3.0709   -9.5168 H         1 LEN         0.3267 
     44 H15         3.1247    5.9748   -8.9801 H         1 LEN         0.1112 
     45 H16         2.8525    6.6455   -6.4198 H         1 LEN         0.0782 
     46 H17         4.2308    5.5197   -6.1761 H         1 LEN         0.0782 
     47 H18         5.7724    7.0334   -7.9017 H         1 LEN         0.0782 
     48 H19         4.3941    8.1592   -8.1454 H         1 LEN         0.0782 
@<TRIPOS>BOND
     1    1    2 1    
     2    1   31 1    
     3    1   32 1    
     4    1   33 1    
     5    2    3 1    
     6    3   12 ar   
     7    3    4 ar   
     8    4    5 ar   
     9    4   34 1    
    10    5   10 ar   
    11    5    6 ar   
    12    6    7 ar   
    13    7    8 ar   
    14    7   35 1    
    15    8    9 ar   
    16    8   36 1    
    17    9   10 ar   
    18    9   16 1    
    19   10   11 ar   
    20   11   12 ar   
    21   11   37 1    
    22   12   13 1    
    23   13   14 2    
    24   13   15 am   BACKBONE|DICT|INTERRES
    25   15   38 1    
    26   15   39 1    
    27   16   17 1    
    28   17   22 ar   
    29   17   18 ar   
    30   18   19 ar   
    31   18   40 1    
    32   19   20 ar   
    33   19   30 1    
    34   20   21 ar   
    35   20   23 1    
    36   21   22 ar   
    37   21   41 1    
    38   22   42 1    
    39   23   24 1    
    40   23   43 1    
    41   24   25 1    
    42   24   26 2    
    43   26   27 1    
    44   27   29 1    
    45   27   28 1    
    46   27   44 1    
    47   28   29 1    
    48   28   45 1    
    49   28   46 1    
    50   29   47 1    
    51   29   48 1    
@<TRIPOS>SUBSTRUCTURE
     1 LEN         1 GROUP             0       ****    0 ROOT    
@<TRIPOS>MOLECULE
4-[3-chloro-4-(cyclopropylcarbamoylamino)phenoxy]-7-methoxy-quinoline-6-carboxamide
49   52    1
SMALL
USER_CHARGES


@<TRIPOS>ATOM
      1 C1          6.1704   -8.5147  -13.2904 C.3       1 LEN         0.1145 
      2 O1          6.8172   -7.2561  -13.1424 O.3       1 LEN        -0.3541 
      3 C2          6.2283   -6.3586  -12.3024 C.ar      1 LEN         0.1346 
      4 C3          6.5870   -6.3565  -10.9522 C.ar      1 LEN        -0.1972 
      5 C4          6.0195   -5.4634  -10.0476 C.ar      1 LEN         0.4324 
      6 N1          6.3880   -5.4884   -8.7528 N.pl3     1 LEN        -0.6779 
      7 C5          5.8123   -4.6037   -7.9067 C.ar      1 LEN         0.4495 
      8 C6          4.8670   -3.6725   -8.2862 C.ar      1 LEN        -0.3320 
      9 C7          4.4892   -3.6492   -9.6210 C.ar      1 LEN         0.1746 
     10 C8          5.0609   -4.5484  -10.5312 C.ar      1 LEN        -0.1742 
     11 C9          4.6999   -4.5503  -11.8893 C.ar      1 LEN        -0.0447 
     12 C10         5.2836   -5.4545  -12.7719 C.ar      1 LEN        -0.1562 
     13 C11         4.8929   -5.4367  -14.1745 C.2       1 LEN         0.6839 
     14 O2          3.9376   -6.1153  -14.5881 O.co2     1 LEN        -0.6054 
     15 N2          5.6151   -4.6172  -15.0357 N.2       1 LEN        -0.6641 
     16 O3          3.5553   -2.7339  -10.0112 O.3       1 LEN        -0.2391 
     17 C12         3.8534   -1.3961   -9.8252 C.ar      1 LEN         0.0396 
     18 C13         5.1124   -0.9068  -10.1737 C.ar      1 LEN        -0.0910 
     19 C14         5.4124    0.4425   -9.9869 C.ar      1 LEN        -0.0475 
     20 C15         4.4536    1.3026   -9.4516 C.ar      1 LEN         0.1097 
     21 C16         3.1947    0.8133   -9.1030 C.ar      1 LEN        -0.1506 
     22 C17         2.8946   -0.5361   -9.2898 C.ar      1 LEN        -0.0938 
     23 N3          4.7221    2.6599   -9.2509 N.am      1 LEN        -0.4794 
     24 C18         3.8713    3.6510   -8.7259 C.2       1 LEN         0.7796 
     25 O4          2.7154    3.4841   -8.3443 O.2       1 LEN        -0.6078 
     26 N4          4.5174    4.8909   -8.6875 N.am      1 LEN        -0.5350 
     27 C19         3.8864    6.0938   -8.1955 C.3       1 LEN         0.0537 
     28 C20         3.8766    6.3978   -6.7359 C.3       1 LEN        -0.1458 
     29 C21         4.7128    7.2189   -7.6719 C.3       1 LEN        -0.1458 
     30 Cl1         6.9846    1.0061  -10.4287 Cl        1 LEN        -0.0955 
     31 H1          6.7432   -9.1413  -13.9899 H         1 LEN         0.0495 
     32 H2          5.1546   -8.3609  -13.6833 H         1 LEN         0.0495 
     33 H3          6.1134   -9.0149  -12.3124 H         1 LEN         0.0495 
     34 H4          7.3293   -7.0726  -10.6022 H         1 LEN         0.1676 
     35 H5          6.1465   -4.6687   -6.8765 H         1 LEN         0.0265 
     36 H6          4.4391   -2.9873   -7.5630 H         1 LEN         0.1607 
     37 H7          3.9608   -3.8457  -12.2662 H         1 LEN         0.1620 
     38 H8          6.4485   -4.0121  -14.6493 H         1 LEN         0.3154 
     39 H10         5.8001   -1.5235  -10.5567 H         1 LEN         0.1660 
     40 H11         2.5073    1.4299   -8.7192 H         1 LEN         0.1897 
     41 H12         1.9914   -0.8865   -9.0417 H         1 LEN         0.1596 
     42 H13         5.7072    3.0709   -9.5168 H         1 LEN         0.3267 
     43 H14         5.5537    4.9242   -9.0549 H         1 LEN         0.3027 
     44 H15         3.1247    5.9748   -8.9801 H         1 LEN         0.1112 
     45 H16         2.8525    6.6455   -6.4198 H         1 LEN         0.0782 
     46 H17         4.2308    5.5197   -6.1761 H         1 LEN         0.0782 
     47 H18         5.7724    7.0334   -7.9017 H         1 LEN         0.0782 
     48 H19         4.3941    8.1592   -8.1454 H         1 LEN         0.0782 
     49 H49         7.1385   -6.2151   -8.4085 H         1 LEN         0.0000 
@<TRIPOS>BOND
     1    1    2 1    
     2    1   31 1    
     3    1   32 1    
     4    1   33 1    
     5    2    3 1    
     6    3   12 ar   
     7    3    4 ar   
     8    4    5 ar   
     9    4   34 1    
    10    5   10 ar   
    11    5    6 ar   
    12    6    7 ar   
    13    6   49 1    
    14    7    8 ar   
    15    7   35 1    
    16    8    9 ar   
    17    8   36 1    
    18    9   10 ar   
    19    9   16 1    
    20   10   11 ar   
    21   11   12 ar   
    22   11   37 1    
    23   12   13 1    
    24   13   14 1    
    25   13   15 2    
    26   15   38 1    
    27   16   17 1    
    28   17   22 ar   
    29   17   18 ar   
    30   18   19 ar   
    31   18   39 1    
    32   19   20 ar   
    33   19   30 1    
    34   20   21 ar   
    35   20   23 1    
    36   21   22 ar   
    37   21   40 1    
    38   22   41 1    
    39   23   24 am   BACKBONE|DICT|INTERRES
    40   23   42 1    
    41   24   25 2    
    42   24   26 am   BACKBONE|DICT|INTERRES
    43   26   27 1    
    44   26   43 1    
    45   27   29 1    
    46   27   28 1    
    47   27   44 1    
    48   28   29 1    
    49   28   45 1    
    50   28   46 1    
    51   29   47 1    
    52   29   48 1    
@<TRIPOS>SUBSTRUCTURE
     1 LEN         1 GROUP             0       ****    0 ROOT    
@<TRIPOS>MOLECULE
4-[3-chloro-4-(cyclopropylcarbamoylamino)phenoxy]-7-methoxy-quinoline-6-carboxamide
49   52    1
SMALL
USER_CHARGES


@<TRIPOS>ATOM
      1 C1          6.1704   -8.5147  -13.2904 C.3       1 LEN         0.1145 
      2 O1          6.8172   -7.2561  -13.1424 O.3       1 LEN        -0.3541 
      3 C2          6.2283   -6.3586  -12.3024 C.ar      1 LEN         0.1346 
      4 C3          6.5870   -6.3565  -10.9522 C.ar      1 LEN        -0.1972 
      5 C4          6.0195   -5.4634  -10.0476 C.ar      1 LEN         0.4324 
      6 N1          6.3880   -5.4884   -8.7528 N.pl3     1 LEN        -0.6779 
      7 C5          5.8123   -4.6037   -7.9067 C.ar      1 LEN         0.4495 
      8 C6          4.8670   -3.6725   -8.2862 C.ar      1 LEN        -0.3320 
      9 C7          4.4892   -3.6492   -9.6210 C.ar      1 LEN         0.1746 
     10 C8          5.0609   -4.5484  -10.5312 C.ar      1 LEN        -0.1742 
     11 C9          4.6999   -4.5503  -11.8893 C.ar      1 LEN        -0.0447 
     12 C10         5.2836   -5.4545  -12.7719 C.ar      1 LEN        -0.1562 
     13 C11         4.8929   -5.4367  -14.1745 C.2       1 LEN         0.6839 
     14 O2          3.9376   -6.1153  -14.5881 O.co2     1 LEN        -0.6054 
     15 N2          5.6151   -4.6172  -15.0357 N.2       1 LEN        -0.6641 
     16 O3          3.5553   -2.7339  -10.0112 O.3       1 LEN        -0.2391 
     17 C12         3.8534   -1.3961   -9.8252 C.ar      1 LEN         0.0396 
     18 C13         5.1124   -0.9068  -10.1737 C.ar      1 LEN        -0.0910 
     19 C14         5.4124    0.4425   -9.9869 C.ar      1 LEN        -0.0475 
     20 C15         4.4536    1.3026   -9.4516 C.ar      1 LEN         0.1097 
     21 C16         3.1947    0.8133   -9.1030 C.ar      1 LEN        -0.1506 
     22 C17         2.8946   -0.5361   -9.2898 C.ar      1 LEN        -0.0938 
     23 N3          4.7221    2.6599   -9.2509 N.am      1 LEN        -0.4794 
     24 C18         3.8713    3.6510   -8.7259 C.2       1 LEN         0.7796 
     25 O4          2.7154    3.4841   -8.3443 O.2       1 LEN        -0.6078 
     26 N4          4.5174    4.8909   -8.6875 N.am      1 LEN        -0.5350 
     27 C19         3.8864    6.0938   -8.1955 C.3       1 LEN         0.0537 
     28 C20         3.8766    6.3978   -6.7359 C.3       1 LEN        -0.1458 
     29 C21         4.7128    7.2189   -7.6719 C.3       1 LEN        -0.1458 
     30 Cl1         6.9846    1.0061  -10.4287 Cl        1 LEN        -0.0955 
     31 H1          6.7432   -9.1413  -13.9899 H         1 LEN         0.0495 
     32 H2          5.1546   -8.3609  -13.6833 H         1 LEN         0.0495 
     33 H3          6.1134   -9.0149  -12.3124 H         1 LEN         0.0495 
     34 H4          7.3293   -7.0726  -10.6022 H         1 LEN         0.1676 
     35 H5          6.1465   -4.6687   -6.8765 H         1 LEN         0.0265 
     36 H6          4.4391   -2.9873   -7.5630 H         1 LEN         0.1607 
     37 H7          3.9608   -3.8457  -12.2662 H         1 LEN         0.1620 
     38 H9          5.3528   -4.5742  -16.1031 H         1 LEN         0.3154 
     39 H10         5.8001   -1.5235  -10.5567 H         1 LEN         0.1660 
     40 H11         2.5073    1.4299   -8.7192 H         1 LEN         0.1897 
     41 H12         1.9914   -0.8865   -9.0417 H         1 LEN         0.1596 
     42 H13         5.7072    3.0709   -9.5168 H         1 LEN         0.3267 
     43 H14         5.5537    4.9242   -9.0549 H         1 LEN         0.3027 
     44 H15         3.1247    5.9748   -8.9801 H         1 LEN         0.1112 
     45 H16         2.8525    6.6455   -6.4198 H         1 LEN         0.0782 
     46 H17         4.2308    5.5197   -6.1761 H         1 LEN         0.0782 
     47 H18         5.7724    7.0334   -7.9017 H         1 LEN         0.0782 
     48 H19         4.3941    8.1592   -8.1454 H         1 LEN         0.0782 
     49 H49         7.1385   -6.2151   -8.4085 H         1 LEN         0.0000 
@<TRIPOS>BOND
     1    1    2 1    
     2    1   31 1    
     3    1   32 1    
     4    1   33 1    
     5    2    3 1    
     6    3   12 ar   
     7    3    4 ar   
     8    4    5 ar   
     9    4   34 1    
    10    5   10 ar   
    11    5    6 ar   
    12    6    7 ar   
    13    6   49 1    
    14    7    8 ar   
    15    7   35 1    
    16    8    9 ar   
    17    8   36 1    
    18    9   10 ar   
    19    9   16 1    
    20   10   11 ar   
    21   11   12 ar   
    22   11   37 1    
    23   12   13 1    
    24   13   14 1    
    25   13   15 2    
    26   15   38 1    
    27   16   17 1    
    28   17   22 ar   
    29   17   18 ar   
    30   18   19 ar   
    31   18   39 1    
    32   19   20 ar   
    33   19   30 1    
    34   20   21 ar   
    35   20   23 1    
    36   21   22 ar   
    37   21   40 1    
    38   22   41 1    
    39   23   24 am   BACKBONE|DICT|INTERRES
    40   23   42 1    
    41   24   25 2    
    42   24   26 am   BACKBONE|DICT|INTERRES
    43   26   27 1    
    44   26   43 1    
    45   27   29 1    
    46   27   28 1    
    47   27   44 1    
    48   28   29 1    
    49   28   45 1    
    50   28   46 1    
    51   29   47 1    
    52   29   48 1    
@<TRIPOS>SUBSTRUCTURE
     1 LEN         1 GROUP             0       ****    0 ROOT    
@<TRIPOS>MOLECULE
4-[3-chloro-4-(cyclopropylcarbamoylamino)phenoxy]-7-methoxy-quinoline-6-carboxamide
50   53    1
SMALL
USER_CHARGES


@<TRIPOS>ATOM
      1 C1          6.1704   -8.5147  -13.2904 C.3       1 LEN         0.1145 
      2 O1          6.8172   -7.2561  -13.1424 O.3       1 LEN        -0.3541 
      3 C2          6.2283   -6.3586  -12.3024 C.ar      1 LEN         0.1346 
      4 C3          6.5870   -6.3565  -10.9522 C.ar      1 LEN        -0.1972 
      5 C4          6.0195   -5.4634  -10.0476 C.ar      1 LEN         0.4324 
      6 N1          6.3880   -5.4884   -8.7528 N.ar      1 LEN        -0.6779 
      7 C5          5.8123   -4.6037   -7.9067 C.ar      1 LEN         0.4495 
      8 C6          4.8670   -3.6725   -8.2862 C.ar      1 LEN        -0.3320 
      9 C7          4.4892   -3.6492   -9.6210 C.ar      1 LEN         0.1746 
     10 C8          5.0609   -4.5484  -10.5312 C.ar      1 LEN        -0.1742 
     11 C9          4.6999   -4.5503  -11.8893 C.ar      1 LEN        -0.0447 
     12 C10         5.2836   -5.4545  -12.7719 C.ar      1 LEN        -0.1562 
     13 C11         4.8929   -5.4367  -14.1745 C.2       1 LEN         0.6839 
     14 O2          3.9376   -6.1153  -14.5881 O.2       1 LEN        -0.6054 
     15 N2          5.6151   -4.6172  -15.0357 N.am      1 LEN        -0.6641 
     16 O3          3.5553   -2.7339  -10.0112 O.3       1 LEN        -0.2391 
     17 C12         3.8534   -1.3961   -9.8252 C.ar      1 LEN         0.0396 
     18 C13         5.1124   -0.9068  -10.1737 C.ar      1 LEN        -0.0910 
     19 C14         5.4124    0.4425   -9.9869 C.ar      1 LEN        -0.0475 
     20 C15         4.4536    1.3026   -9.4516 C.ar      1 LEN         0.1097 
     21 C16         3.1947    0.8133   -9.1030 C.ar      1 LEN        -0.1506 
     22 C17         2.8946   -0.5361   -9.2898 C.ar      1 LEN        -0.0938 
     23 N3          4.7221    2.6599   -9.2509 N.am      1 LEN        -0.4794 
     24 C18         3.8713    3.6510   -8.7259 C.2       1 LEN         0.7796 
     25 O4          2.7154    3.4841   -8.3443 O.2       1 LEN        -0.6078 
     26 N4          4.5174    4.8909   -8.6875 N.am      1 LEN        -0.5350 
     27 C19         3.8864    6.0938   -8.1955 C.3       1 LEN         0.0537 
     28 C20         3.8766    6.3978   -6.7359 C.3       1 LEN        -0.1458 
     29 C21         4.7128    7.2189   -7.6719 C.3       1 LEN        -0.1458 
     30 Cl1         6.9846    1.0061  -10.4287 Cl        1 LEN        -0.0955 
     31 H1          6.7432   -9.1413  -13.9899 H         1 LEN         0.0495 
     32 H2          5.1546   -8.3609  -13.6833 H         1 LEN         0.0495 
     33 H3          6.1134   -9.0149  -12.3124 H         1 LEN         0.0495 
     34 H4          7.3293   -7.0726  -10.6022 H         1 LEN         0.1676 
     35 H5          6.1465   -4.6687   -6.8765 H         1 LEN         0.0265 
     36 H6          4.4391   -2.9873   -7.5630 H         1 LEN         0.1607 
     37 H7          3.9608   -3.8457  -12.2662 H         1 LEN         0.1620 
     38 H8          5.3528   -4.5742  -16.1031 H         1 LEN         0.3154 
     39 H9          6.4485   -4.0121  -14.6493 H         1 LEN         0.3154 
     40 H10         5.8530   -1.5861  -10.5895 H         1 LEN         0.1660 
     41 H11         2.4383    1.4728   -8.6848 H         1 LEN         0.1897 
     42 H12         1.9117   -0.9114   -9.0185 H         1 LEN         0.1596 
     43 H13         5.7072    3.0709   -9.5168 H         1 LEN         0.3267 
     44 H14         5.5537    4.9242   -9.0549 H         1 LEN         0.3027 
     45 H15         3.1247    5.9748   -8.9801 H         1 LEN         0.1112 
     46 H16         2.8525    6.6455   -6.4198 H         1 LEN         0.0782 
     47 H17         4.2308    5.5197   -6.1761 H         1 LEN         0.0782 
     48 H18         5.7724    7.0334   -7.9017 H         1 LEN         0.0782 
     49 H19         4.3941    8.1592   -8.1454 H         1 LEN         0.0782 
     50 H50         2.1385    4.3334   -7.9495 H         1 LEN         0.0000 
@<TRIPOS>BOND
     1    1    2 1    
     2    1   31 1    
     3    1   32 1    
     4    1   33 1    
     5    2    3 1    
     6    3   12 ar   
     7    3    4 ar   
     8    4    5 ar   
     9    4   34 1    
    10    5   10 ar   
    11    5    6 ar   
    12    6    7 ar   
    13    7    8 ar   
    14    7   35 1    
    15    8    9 ar   
    16    8   36 1    
    17    9   10 ar   
    18    9   16 1    
    19   10   11 ar   
    20   11   12 ar   
    21   11   37 1    
    22   12   13 1    
    23   13   14 2    
    24   13   15 am   BACKBONE|DICT|INTERRES
    25   15   38 1    
    26   15   39 1    
    27   16   17 1    
    28   17   22 ar   
    29   17   18 ar   
    30   18   19 ar   
    31   18   40 1    
    32   19   20 ar   
    33   19   30 1    
    34   20   21 ar   
    35   20   23 1    
    36   21   22 ar   
    37   21   41 1    
    38   22   42 1    
    39   23   24 am   BACKBONE|DICT|INTERRES
    40   23   43 1    
    41   24   25 2    
    42   24   26 am   BACKBONE|DICT|INTERRES
    43   25   50 1    
    44   26   27 1    
    45   26   44 1    
    46   27   29 1    
    47   27   28 1    
    48   27   45 1    
    49   28   29 1    
    50   28   46 1    
    51   28   47 1    
    52   29   48 1    
    53   29   49 1    
@<TRIPOS>SUBSTRUCTURE
     1 LEN         1 GROUP             0       ****    0 ROOT    
@<TRIPOS>MOLECULE
4-[3-chloro-4-(cyclopropylcarbamoylamino)phenoxy]-7-methoxy-quinoline-6-carboxamide
47   50    1
SMALL
USER_CHARGES


@<TRIPOS>ATOM
      1 C1          6.1704   -8.5147  -13.2904 C.3       1 LEN         0.1145 
      2 O1          6.8172   -7.2561  -13.1424 O.3       1 LEN        -0.3541 
      3 C2          6.2283   -6.3586  -12.3024 C.ar      1 LEN         0.1346 
      4 C3          6.5870   -6.3565  -10.9522 C.ar      1 LEN        -0.1972 
      5 C4          6.0195   -5.4634  -10.0476 C.ar      1 LEN         0.4324 
      6 N1          6.3880   -5.4884   -8.7528 N.ar      1 LEN        -0.6779 
      7 C5          5.8123   -4.6037   -7.9067 C.ar      1 LEN         0.4495 
      8 C6          4.8670   -3.6725   -8.2862 C.ar      1 LEN        -0.3320 
      9 C7          4.4892   -3.6492   -9.6210 C.ar      1 LEN         0.1746 
     10 C8          5.0609   -4.5484  -10.5312 C.ar      1 LEN        -0.1742 
     11 C9          4.6999   -4.5503  -11.8893 C.ar      1 LEN        -0.0447 
     12 C10         5.2836   -5.4545  -12.7719 C.ar      1 LEN        -0.1562 
     13 C11         4.8929   -5.4367  -14.1745 C.2       1 LEN         0.6839 
     14 O2          3.9376   -6.1153  -14.5881 O.co2     1 LEN        -0.6054 
     15 N2          5.6151   -4.6172  -15.0357 N.2       1 LEN        -0.6641 
     16 O3          3.5553   -2.7339  -10.0112 O.3       1 LEN        -0.2391 
     17 C12         3.8534   -1.3961   -9.8252 C.ar      1 LEN         0.0396 
     18 C13         5.1124   -0.9068  -10.1737 C.ar      1 LEN        -0.0910 
     19 C14         5.4124    0.4425   -9.9869 C.ar      1 LEN        -0.0475 
     20 C15         4.4536    1.3026   -9.4516 C.ar      1 LEN         0.1097 
     21 C16         3.1947    0.8133   -9.1030 C.ar      1 LEN        -0.1506 
     22 C17         2.8946   -0.5361   -9.2898 C.ar      1 LEN        -0.0938 
     23 N3          4.7221    2.6599   -9.2509 N.2       1 LEN        -0.4794 
     24 C18         3.8713    3.6510   -8.7259 C.2       1 LEN         0.7796 
     25 O4          2.7154    3.4841   -8.3443 O.co2     1 LEN        -0.6078 
     26 N4          4.5174    4.8909   -8.6875 N.pl3     1 LEN        -0.5350 
     27 C19         3.8864    6.0938   -8.1955 C.3       1 LEN         0.0537 
     28 C20         3.8766    6.3978   -6.7359 C.3       1 LEN        -0.1458 
     29 C21         4.7128    7.2189   -7.6719 C.3       1 LEN        -0.1458 
     30 Cl1         6.9846    1.0061  -10.4287 Cl        1 LEN        -0.0955 
     31 H1          6.7432   -9.1413  -13.9899 H         1 LEN         0.0495 
     32 H2          5.1546   -8.3609  -13.6833 H         1 LEN         0.0495 
     33 H3          6.1134   -9.0149  -12.3124 H         1 LEN         0.0495 
     34 H4          7.3293   -7.0726  -10.6022 H         1 LEN         0.1676 
     35 H5          6.1465   -4.6687   -6.8765 H         1 LEN         0.0265 
     36 H6          4.4391   -2.9873   -7.5630 H         1 LEN         0.1607 
     37 H7          3.9608   -3.8457  -12.2662 H         1 LEN         0.1620 
     38 H9          5.3528   -4.5742  -16.1031 H         1 LEN         0.3154 
     39 H10         5.8001   -1.5235  -10.5567 H         1 LEN         0.1660 
     40 H11         2.5073    1.4299   -8.7192 H         1 LEN         0.1897 
     41 H12         1.9914   -0.8865   -9.0417 H         1 LEN         0.1596 
     42 H14         5.5537    4.9242   -9.0549 H         1 LEN         0.3027 
     43 H15         3.1247    5.9748   -8.9801 H         1 LEN         0.1112 
     44 H16         2.8525    6.6455   -6.4198 H         1 LEN         0.0782 
     45 H17         4.2308    5.5197   -6.1761 H         1 LEN         0.0782 
     46 H18         5.7724    7.0334   -7.9017 H         1 LEN         0.0782 
     47 H19         4.3941    8.1592   -8.1454 H         1 LEN         0.0782 
@<TRIPOS>BOND
     1    1    2 1    
     2    1   31 1    
     3    1   32 1    
     4    1   33 1    
     5    2    3 1    
     6    3   12 ar   
     7    3    4 ar   
     8    4    5 ar   
     9    4   34 1    
    10    5   10 ar   
    11    5    6 ar   
    12    6    7 ar   
    13    7    8 ar   
    14    7   35 1    
    15    8    9 ar   
    16    8   36 1    
    17    9   10 ar   
    18    9   16 1    
    19   10   11 ar   
    20   11   12 ar   
    21   11   37 1    
    22   12   13 1    
    23   13   14 1    
    24   13   15 2    
    25   15   38 1    
    26   16   17 1    
    27   17   22 ar   
    28   17   18 ar   
    29   18   19 ar   
    30   18   39 1    
    31   19   20 ar   
    32   19   30 1    
    33   20   21 ar   
    34   20   23 1    
    35   21   22 ar   
    36   21   40 1    
    37   22   41 1    
    38   23   24 2    
    39   24   25 1    
    40   24   26 1    
    41   26   27 1    
    42   26   42 1    
    43   27   29 1    
    44   27   28 1    
    45   27   43 1    
    46   28   29 1    
    47   28   44 1    
    48   28   45 1    
    49   29   46 1    
    50   29   47 1    
@<TRIPOS>SUBSTRUCTURE
     1 LEN         1 GROUP             0       ****    0 ROOT    
@<TRIPOS>MOLECULE
4-[3-chloro-4-(cyclopropylcarbamoylamino)phenoxy]-7-methoxy-quinoline-6-carboxamide
47   50    1
SMALL
USER_CHARGES


@<TRIPOS>ATOM
      1 C1          6.1704   -8.5147  -13.2904 C.3       1 LEN         0.1145 
      2 O1          6.8172   -7.2561  -13.1424 O.3       1 LEN        -0.3541 
      3 C2          6.2283   -6.3586  -12.3024 C.ar      1 LEN         0.1346 
      4 C3          6.5870   -6.3565  -10.9522 C.ar      1 LEN        -0.1972 
      5 C4          6.0195   -5.4634  -10.0476 C.ar      1 LEN         0.4324 
      6 N1          6.3880   -5.4884   -8.7528 N.ar      1 LEN        -0.6779 
      7 C5          5.8123   -4.6037   -7.9067 C.ar      1 LEN         0.4495 
      8 C6          4.8670   -3.6725   -8.2862 C.ar      1 LEN        -0.3320 
      9 C7          4.4892   -3.6492   -9.6210 C.ar      1 LEN         0.1746 
     10 C8          5.0609   -4.5484  -10.5312 C.ar      1 LEN        -0.1742 
     11 C9          4.6999   -4.5503  -11.8893 C.ar      1 LEN        -0.0447 
     12 C10         5.2836   -5.4545  -12.7719 C.ar      1 LEN        -0.1562 
     13 C11         4.8929   -5.4367  -14.1745 C.2       1 LEN         0.6839 
     14 O2          3.9376   -6.1153  -14.5881 O.co2     1 LEN        -0.6054 
     15 N2          5.6151   -4.6172  -15.0357 N.2       1 LEN        -0.6641 
     16 O3          3.5553   -2.7339  -10.0112 O.3       1 LEN        -0.2391 
     17 C12         3.8534   -1.3961   -9.8252 C.ar      1 LEN         0.0396 
     18 C13         5.1124   -0.9068  -10.1737 C.ar      1 LEN        -0.0910 
     19 C14         5.4124    0.4425   -9.9869 C.ar      1 LEN        -0.0475 
     20 C15         4.4536    1.3026   -9.4516 C.ar      1 LEN         0.1097 
     21 C16         3.1947    0.8133   -9.1030 C.ar      1 LEN        -0.1506 
     22 C17         2.8946   -0.5361   -9.2898 C.ar      1 LEN        -0.0938 
     23 N3          4.7221    2.6599   -9.2509 N.2       1 LEN        -0.4794 
     24 C18         3.8713    3.6510   -8.7259 C.2       1 LEN         0.7796 
     25 O4          2.7154    3.4841   -8.3443 O.co2     1 LEN        -0.6078 
     26 N4          4.5174    4.8909   -8.6875 N.pl3     1 LEN        -0.5350 
     27 C19         3.8864    6.0938   -8.1955 C.3       1 LEN         0.0537 
     28 C20         3.8766    6.3978   -6.7359 C.3       1 LEN        -0.1458 
     29 C21         4.7128    7.2189   -7.6719 C.3       1 LEN        -0.1458 
     30 Cl1         6.9846    1.0061  -10.4287 Cl        1 LEN        -0.0955 
     31 H1          6.7432   -9.1413  -13.9899 H         1 LEN         0.0495 
     32 H2          5.1546   -8.3609  -13.6833 H         1 LEN         0.0495 
     33 H3          6.1134   -9.0149  -12.3124 H         1 LEN         0.0495 
     34 H4          7.3293   -7.0726  -10.6022 H         1 LEN         0.1676 
     35 H5          6.1465   -4.6687   -6.8765 H         1 LEN         0.0265 
     36 H6          4.4391   -2.9873   -7.5630 H         1 LEN         0.1607 
     37 H7          3.9608   -3.8457  -12.2662 H         1 LEN         0.1620 
     38 H8          6.4485   -4.0121  -14.6493 H         1 LEN         0.3154 
     39 H10         5.8001   -1.5235  -10.5567 H         1 LEN         0.1660 
     40 H11         2.5073    1.4299   -8.7192 H         1 LEN         0.1897 
     41 H12         1.9914   -0.8865   -9.0417 H         1 LEN         0.1596 
     42 H14         5.5537    4.9242   -9.0549 H         1 LEN         0.3027 
     43 H15         3.1247    5.9748   -8.9801 H         1 LEN         0.1112 
     44 H16         2.8525    6.6455   -6.4198 H         1 LEN         0.0782 
     45 H17         4.2308    5.5197   -6.1761 H         1 LEN         0.0782 
     46 H18         5.7724    7.0334   -7.9017 H         1 LEN         0.0782 
     47 H19         4.3941    8.1592   -8.1454 H         1 LEN         0.0782 
@<TRIPOS>BOND
     1    1    2 1    
     2    1   31 1    
     3    1   32 1    
     4    1   33 1    
     5    2    3 1    
     6    3   12 ar   
     7    3    4 ar   
     8    4    5 ar   
     9    4   34 1    
    10    5   10 ar   
    11    5    6 ar   
    12    6    7 ar   
    13    7    8 ar   
    14    7   35 1    
    15    8    9 ar   
    16    8   36 1    
    17    9   10 ar   
    18    9   16 1    
    19   10   11 ar   
    20   11   12 ar   
    21   11   37 1    
    22   12   13 1    
    23   13   14 1    
    24   13   15 2    
    25   15   38 1    
    26   16   17 1    
    27   17   22 ar   
    28   17   18 ar   
    29   18   19 ar   
    30   18   39 1    
    31   19   20 ar   
    32   19   30 1    
    33   20   21 ar   
    34   20   23 1    
    35   21   22 ar   
    36   21   40 1    
    37   22   41 1    
    38   23   24 2    
    39   24   25 1    
    40   24   26 1    
    41   26   27 1    
    42   26   42 1    
    43   27   29 1    
    44   27   28 1    
    45   27   43 1    
    46   28   29 1    
    47   28   44 1    
    48   28   45 1    
    49   29   46 1    
    50   29   47 1    
@<TRIPOS>SUBSTRUCTURE
     1 LEN         1 GROUP             0       ****    0 ROOT    
