4-[3-chloro-4-(cyclopropylcarbamoylamino)phenoxy]-7-methoxy-quinoline-6-carboxamide
                    3D
 Structure written by MMmdl.
 49 52  0  0  1  0            999 V2000
    6.1703   -8.5146  -13.2906 C   0  0  0  0  0  0
    6.8171   -7.2560  -13.1425 O   0  0  0  0  0  0
    6.2282   -6.3586  -12.3026 C   0  0  0  0  0  0
    6.5870   -6.3565  -10.9523 C   0  0  0  0  0  0
    6.0194   -5.4633  -10.0477 C   0  0  0  0  0  0
    6.3880   -5.4884   -8.7529 N   0  0  0  0  0  0
    5.8122   -4.6037   -7.9069 C   0  0  0  0  0  0
    4.8669   -3.6725   -8.2863 C   0  0  0  0  0  0
    4.4891   -3.6492   -9.6211 C   0  0  0  0  0  0
    5.0609   -4.5483  -10.5313 C   0  0  0  0  0  0
    4.6999   -4.5502  -11.8894 C   0  0  0  0  0  0
    5.2836   -5.4544  -12.7720 C   0  0  0  0  0  0
    4.8928   -5.4366  -14.1747 C   0  0  0  0  0  0
    3.9375   -6.1152  -14.5883 O   0  0  0  0  0  0
    5.6151   -4.6171  -15.0359 N   0  0  0  0  0  0
    3.5553   -2.7338  -10.0113 O   0  0  0  0  0  0
    3.8534   -1.3961   -9.8253 C   0  0  0  0  0  0
    5.1123   -0.9068  -10.1737 C   0  0  0  0  0  0
    5.4124    0.4426   -9.9869 C   0  0  0  0  0  0
    4.4535    1.3026   -9.4516 C   0  0  0  0  0  0
    3.1946    0.8133   -9.1031 C   0  0  0  0  0  0
    2.8946   -0.5360   -9.2899 C   0  0  0  0  0  0
    4.7221    2.6599   -9.2510 N   0  0  0  0  0  0
    3.8713    3.6510   -8.7260 C   0  0  0  0  0  0
    2.7154    3.4842   -8.3443 O   0  0  0  0  0  0
    4.5174    4.8909   -8.6876 N   0  0  0  0  0  0
    3.8864    6.0939   -8.1955 C   0  0  0  0  0  0
    3.8766    6.3979   -6.7359 C   0  0  0  0  0  0
    4.7128    7.2190   -7.6719 C   0  0  0  0  0  0
    6.9846    1.0061  -10.4288 Cl  0  0  0  0  0  0
    6.7431   -9.1412  -13.9901 H   0  0  0  0  0  0
    5.1545   -8.3608  -13.6836 H   0  0  0  0  0  0
    6.1132   -9.0148  -12.3126 H   0  0  0  0  0  0
    7.3292   -7.0725  -10.6023 H   0  0  0  0  0  0
    6.1464   -4.6687   -6.8766 H   0  0  0  0  0  0
    4.4391   -2.9873   -7.5631 H   0  0  0  0  0  0
    3.9607   -3.8456  -12.2663 H   0  0  0  0  0  0
    5.3528   -4.5741  -16.1033 H   0  0  0  0  0  0
    6.4486   -4.0121  -14.6495 H   0  0  0  0  0  0
    5.8530   -1.5860  -10.5896 H   0  0  0  0  0  0
    2.4383    1.4728   -8.6848 H   0  0  0  0  0  0
    1.9117   -0.9113   -9.0186 H   0  0  0  0  0  0
    5.7072    3.0708   -9.5170 H   0  0  0  0  0  0
    5.5537    4.9242   -9.0550 H   0  0  0  0  0  0
    3.1247    5.9749   -8.9801 H   0  0  0  0  0  0
    2.8525    6.6456   -6.4198 H   0  0  0  0  0  0
    4.2308    5.5198   -6.1761 H   0  0  0  0  0  0
    5.7724    7.0335   -7.9017 H   0  0  0  0  0  0
    4.3941    8.1593   -8.1454 H   0  0  0  0  0  0
  1  2  1  0  0  0
  1 31  1  0  0  0
  1 32  1  0  0  0
  1 33  1  0  0  0
  2  3  1  0  0  0
  3 12  2  0  0  0
  3  4  1  0  0  0
  4  5  2  0  0  0
  4 34  1  0  0  0
  5 10  1  0  0  0
  5  6  1  0  0  0
  6  7  2  0  0  0
  7  8  1  0  0  0
  7 35  1  0  0  0
  8  9  2  0  0  0
  8 36  1  0  0  0
  9 10  1  0  0  0
  9 16  1  0  0  0
 10 11  2  0  0  0
 11 12  1  0  0  0
 11 37  1  0  0  0
 12 13  1  0  0  0
 13 14  2  0  0  0
 13 15  1  0  0  0
 15 38  1  0  0  0
 15 39  1  0  0  0
 16 17  1  0  0  0
 17 22  2  0  0  0
 17 18  1  0  0  0
 18 19  2  0  0  0
 18 40  1  0  0  0
 19 20  1  0  0  0
 19 30  1  0  0  0
 20 21  2  0  0  0
 20 23  1  0  0  0
 21 22  1  0  0  0
 21 41  1  0  0  0
 22 42  1  0  0  0
 23 24  1  0  0  0
 23 43  1  0  0  0
 24 25  2  0  0  0
 24 26  1  0  0  0
 26 27  1  0  0  0
 26 44  1  0  0  0
 27 29  1  0  0  0
 27 28  1  0  0  0
 27 45  1  0  0  0
 28 29  1  0  0  0
 28 46  1  0  0  0
 28 47  1  0  0  0
 29 48  1  0  0  0
 29 49  1  0  0  0
M  END
> <s_m_source_file>
/cbio/jclab/home/andrrizzi/epik_inhibitors/output/Lenvatinib/Lenvatinib-input.mol2

> <i_m_source_file_index>
1

> <r_lp_tautomer_probability>
1

> <r_epik_Ionization_Penalty>
  0.0001

> <r_epik_Ionization_Penalty_Charging>
  0.0000

> <r_epik_Ionization_Penalty_Neutral>
  0.0001

> <r_epik_State_Penalty>
 -0.0000

> <i_epik_Tot_Q>
0

$$$$
