@<TRIPOS>MOLECULE
4-[3-chloro-4-(cyclopropylcarbamoylamino)phenoxy]-7-methoxy-quinoline-6-carboxamide
   49    52     0     0     0
SMALL
USER_CHARGES

@<TRIPOS>ATOM
      1 C1          6.1703   -8.5147  -13.2904 C.3       1 <0>         0.1143
      2 O1          6.8172   -7.2561  -13.1424 O.3       1 <0>        -0.3541
      3 C2          6.2283   -6.3586  -12.3024 C.ar      1 <0>         0.1352
      4 C3          6.5870   -6.3565  -10.9522 C.ar      1 <0>        -0.1972
      5 C4          6.0195   -5.4634  -10.0476 C.ar      1 <0>         0.4327
      6 N1          6.3880   -5.4884   -8.7528 N.ar      1 <0>        -0.6787
      7 C5          5.8123   -4.6037   -7.9067 C.ar      1 <0>         0.4503
      8 C6          4.8669   -3.6725   -8.2862 C.ar      1 <0>        -0.3331
      9 C7          4.4892   -3.6492   -9.6210 C.ar      1 <0>         0.1752
     10 C8          5.0609   -4.5484  -10.5312 C.ar      1 <0>        -0.1748
     11 C9          4.6999   -4.5503  -11.8893 C.ar      1 <0>        -0.0443
     12 C10         5.2836   -5.4545  -12.7719 C.ar      1 <0>        -0.1566
     13 C11         4.8928   -5.4367  -14.1745 C.2       1 <0>         0.6837
     14 O2          3.9376   -6.1153  -14.5881 O.2       1 <0>        -0.6060
     15 N2          5.6151   -4.6172  -15.0357 N.am      1 <0>        -0.6625
     16 O3          3.5553   -2.7339  -10.0112 O.3       1 <0>        -0.2387
     17 C12         3.8534   -1.3961   -9.8252 C.ar      1 <0>         0.0409
     18 C13         5.1124   -0.9068  -10.1737 C.ar      1 <0>        -0.0909
     19 C14         5.4124    0.4425   -9.9869 C.ar      1 <0>        -0.0475
     20 C15         4.4536    1.3026   -9.4516 C.ar      1 <0>         0.1092
     21 C16         3.1946    0.8133   -9.1030 C.ar      1 <0>        -0.1508
     22 C17         2.8946   -0.5361   -9.2898 C.ar      1 <0>        -0.0943
     23 N3          4.7221    2.6599   -9.2509 N.am      1 <0>        -0.4785
     24 C18         3.8713    3.6510   -8.7259 C.2       1 <0>         0.7780
     25 O4          2.7154    3.4841   -8.3443 O.2       1 <0>        -0.6090
     26 N4          4.5174    4.8909   -8.6876 N.am      1 <0>        -0.5312
     27 C19         3.8864    6.0938   -8.1956 C.3       1 <0>         0.0511
     28 C20         3.8766    6.3979   -6.7360 C.3       1 <0>        -0.1453
     29 C21         4.7128    7.2189   -7.6719 C.3       1 <0>        -0.1453
     30 Cl1         6.9846    1.0061  -10.4287 Cl        1 <0>        -0.0950
     31 H1          6.7431   -9.1413  -13.9899 H         1 <0>         0.0496
     32 H2          5.1545   -8.3609  -13.6834 H         1 <0>         0.0496
     33 H3          6.1133   -9.0149  -12.3124 H         1 <0>         0.0496
     34 H4          7.3293   -7.0726  -10.6022 H         1 <0>         0.1678
     35 H5          6.1465   -4.6687   -6.8765 H         1 <0>         0.0266
     36 H6          4.4391   -2.9873   -7.5630 H         1 <0>         0.1603
     37 H7          3.9607   -3.8457  -12.2662 H         1 <0>         0.1616
     38 H8          5.3528   -4.5742  -16.1031 H         1 <0>         0.3149
     39 H9          6.4486   -4.0122  -14.6493 H         1 <0>         0.3149
     40 H10         5.8530   -1.5861  -10.5895 H         1 <0>         0.1657
     41 H11         2.4383    1.4728   -8.6848 H         1 <0>         0.1907
     42 H12         1.9117   -0.9114   -9.0185 H         1 <0>         0.1596
     43 H13         5.7072    3.0709   -9.5168 H         1 <0>         0.3264
     44 H14         5.5537    4.9242   -9.0550 H         1 <0>         0.3016
     45 H15         3.1247    5.9747   -8.9803 H         1 <0>         0.1114
     46 H16         2.8525    6.6456   -6.4200 H         1 <0>         0.0782
     47 H17         4.2308    5.5198   -6.1761 H         1 <0>         0.0782
     48 H18         5.7724    7.0334   -7.9016 H         1 <0>         0.0782
     49 H19         4.3942    8.1593   -8.1454 H         1 <0>         0.0782
@<TRIPOS>BOND
     1    1    2 1
     2    1   31 1
     3    1   32 1
     4    1   33 1
     5    2    3 1
     6    3   12 ar
     7    3    4 ar
     8    4    5 ar
     9    4   34 1
    10    5   10 ar
    11    5    6 ar
    12    6    7 ar
    13    7    8 ar
    14    7   35 1
    15    8    9 ar
    16    8   36 1
    17    9   10 ar
    18    9   16 1
    19   10   11 ar
    20   11   12 ar
    21   11   37 1
    22   12   13 1
    23   13   14 2
    24   13   15 am
    25   15   38 1
    26   15   39 1
    27   16   17 1
    28   17   22 ar
    29   17   18 ar
    30   18   19 ar
    31   18   40 1
    32   19   20 ar
    33   19   30 1
    34   20   21 ar
    35   20   23 1
    36   21   22 ar
    37   21   41 1
    38   22   42 1
    39   23   24 am
    40   23   43 1
    41   24   25 2
    42   24   26 am
    43   26   27 1
    44   26   44 1
    45   27   29 1
    46   27   28 1
    47   27   45 1
    48   28   29 1
    49   28   46 1
    50   28   47 1
    51   29   48 1
    52   29   49 1
@<TRIPOS>MOLECULE
4-[3-chloro-4-(cyclopropylcarbamoylamino)phenoxy]-7-methoxy-quinoline-6-carboximidate
   48    51     0     0     0
SMALL
USER_CHARGES

@<TRIPOS>ATOM
      1 C1          6.1703   -8.5147  -13.2904 C.3       1 <0>         0.1238
      2 O1          6.8172   -7.2561  -13.1424 O.3       1 <0>        -0.3286
      3 C2          6.2283   -6.3586  -12.3024 C.ar      1 <0>         0.1423
      4 C3          6.5870   -6.3565  -10.9522 C.ar      1 <0>        -0.2300
      5 C4          6.0195   -5.4634  -10.0476 C.ar      1 <0>         0.3951
      6 N1          6.3880   -5.4884   -8.7528 N.ar      1 <0>        -0.6797
      7 C5          5.8123   -4.6037   -7.9067 C.ar      1 <0>         0.4103
      8 C6          4.8669   -3.6725   -8.2862 C.ar      1 <0>        -0.3541
      9 C7          4.4892   -3.6492   -9.6210 C.ar      1 <0>         0.1636
     10 C8          5.0609   -4.5484  -10.5312 C.ar      1 <0>        -0.1536
     11 C9          4.6999   -4.5503  -11.8893 C.ar      1 <0>        -0.0976
     12 C10         5.2836   -5.4545  -12.7719 C.ar      1 <0>        -0.0866
     13 C11         4.8928   -5.4367  -14.1745 C.2       1 <0>         0.8887
     14 O2          3.9376   -6.1153  -14.5881 O.3       1 <0>        -0.9099
     15 N2          5.6151   -4.6172  -15.0357 N.2       1 <0>        -1.0346
     16 O3          3.5553   -2.7339  -10.0112 O.3       1 <0>        -0.2338
     17 C12         3.8534   -1.3961   -9.8252 C.ar      1 <0>         0.0756
     18 C13         5.1124   -0.9068  -10.1737 C.ar      1 <0>        -0.0959
     19 C14         5.4124    0.4425   -9.9869 C.ar      1 <0>        -0.0395
     20 C15         4.4536    1.3026   -9.4516 C.ar      1 <0>         0.0829
     21 C16         3.1946    0.8133   -9.1030 C.ar      1 <0>        -0.1496
     22 C17         2.8946   -0.5361   -9.2898 C.ar      1 <0>        -0.1009
     23 N3          4.7221    2.6599   -9.2509 N.am      1 <0>        -0.4771
     24 C18         3.8713    3.6510   -8.7259 C.2       1 <0>         0.7779
     25 O4          2.7154    3.4841   -8.3443 O.2       1 <0>        -0.6122
     26 N4          4.5174    4.8909   -8.6876 N.am      1 <0>        -0.5378
     27 C19         3.8864    6.0938   -8.1956 C.3       1 <0>         0.0599
     28 C20         3.8766    6.3979   -6.7360 C.3       1 <0>        -0.1499
     29 C21         4.7128    7.2189   -7.6719 C.3       1 <0>        -0.1499
     30 Cl1         6.9846    1.0061  -10.4287 Cl        1 <0>        -0.1143
     31 H1          6.7431   -9.1413  -13.9899 H         1 <0>         0.0331
     32 H2          5.1545   -8.3609  -13.6834 H         1 <0>         0.0331
     33 H3          6.1133   -9.0149  -12.3124 H         1 <0>         0.0331
     34 H4          7.3293   -7.0726  -10.6022 H         1 <0>         0.1417
     35 H5          6.1465   -4.6687   -6.8765 H         1 <0>         0.0021
     36 H6          4.4391   -2.9873   -7.5630 H         1 <0>         0.1389
     37 H7          3.9607   -3.8457  -12.2662 H         1 <0>         0.1594
     38 H8          5.3528   -4.5742  -16.1031 H         1 <0>         0.3310
     39 H9          5.8530   -1.5861  -10.5895 H         1 <0>         0.1714
     40 H10         2.4383    1.4728   -8.6848 H         1 <0>         0.1806
     41 H11         1.9117   -0.9114   -9.0185 H         1 <0>         0.1626
     42 H12         5.7072    3.0709   -9.5168 H         1 <0>         0.3240
     43 H13         5.5537    4.9242   -9.0550 H         1 <0>         0.2948
     44 H14         3.1247    5.9747   -8.9803 H         1 <0>         0.1089
     45 H15         2.8525    6.6456   -6.4200 H         1 <0>         0.0752
     46 H16         4.2308    5.5198   -6.1761 H         1 <0>         0.0752
     47 H17         5.7724    7.0334   -7.9016 H         1 <0>         0.0752
     48 H18         4.3942    8.1593   -8.1454 H         1 <0>         0.0752
@<TRIPOS>BOND
     1    1    2 1
     2    1   31 1
     3    1   32 1
     4    1   33 1
     5    2    3 1
     6    3   12 ar
     7    3    4 ar
     8    4    5 ar
     9    4   34 1
    10    5   10 ar
    11    5    6 ar
    12    6    7 ar
    13    7    8 ar
    14    7   35 1
    15    8    9 ar
    16    8   36 1
    17    9   10 ar
    18    9   16 1
    19   10   11 ar
    20   11   12 ar
    21   11   37 1
    22   12   13 1
    23   13   14 1
    24   13   15 2
    25   15   38 1
    26   16   17 1
    27   17   22 ar
    28   17   18 ar
    29   18   19 ar
    30   18   39 1
    31   19   20 ar
    32   19   30 1
    33   20   21 ar
    34   20   23 1
    35   21   22 ar
    36   21   40 1
    37   22   41 1
    38   23   24 am
    39   23   42 1
    40   24   25 2
    41   24   26 am
    42   26   27 1
    43   26   43 1
    44   27   29 1
    45   27   28 1
    46   27   44 1
    47   28   29 1
    48   28   45 1
    49   28   46 1
    50   29   47 1
    51   29   48 1
@<TRIPOS>MOLECULE
4-[3-chloro-4-(cyclopropylcarbamoylamino)phenoxy]-7-methoxy-quinoline-6-carboximidate
   48    51     0     0     0
SMALL
USER_CHARGES

@<TRIPOS>ATOM
      1 C1          6.1703   -8.5147  -13.2904 C.3       1 <0>         0.1245
      2 O1          6.8172   -7.2561  -13.1424 O.3       1 <0>        -0.3438
      3 C2          6.2283   -6.3586  -12.3024 C.ar      1 <0>         0.1255
      4 C3          6.5870   -6.3565  -10.9522 C.ar      1 <0>        -0.2266
      5 C4          6.0195   -5.4634  -10.0476 C.ar      1 <0>         0.3932
      6 N1          6.3880   -5.4884   -8.7528 N.ar      1 <0>        -0.6794
      7 C5          5.8123   -4.6037   -7.9067 C.ar      1 <0>         0.4124
      8 C6          4.8669   -3.6725   -8.2862 C.ar      1 <0>        -0.3559
      9 C7          4.4892   -3.6492   -9.6210 C.ar      1 <0>         0.1653
     10 C8          5.0609   -4.5484  -10.5312 C.ar      1 <0>        -0.1567
     11 C9          4.6999   -4.5503  -11.8893 C.ar      1 <0>        -0.0901
     12 C10         5.2836   -5.4545  -12.7719 C.ar      1 <0>        -0.1849
     13 C11         4.8928   -5.4367  -14.1745 C.2       1 <0>         0.9289
     14 O2          3.9376   -6.1153  -14.5881 O.3       1 <0>        -0.8447
     15 N2          5.6151   -4.6172  -15.0357 N.2       1 <0>        -1.0236
     16 O3          3.5553   -2.7339  -10.0112 O.3       1 <0>        -0.2336
     17 C12         3.8534   -1.3961   -9.8252 C.ar      1 <0>         0.0747
     18 C13         5.1124   -0.9068  -10.1737 C.ar      1 <0>        -0.0968
     19 C14         5.4124    0.4425   -9.9869 C.ar      1 <0>        -0.0397
     20 C15         4.4536    1.3026   -9.4516 C.ar      1 <0>         0.0853
     21 C16         3.1946    0.8133   -9.1030 C.ar      1 <0>        -0.1498
     22 C17         2.8946   -0.5361   -9.2898 C.ar      1 <0>        -0.0980
     23 N3          4.7221    2.6599   -9.2509 N.am      1 <0>        -0.4777
     24 C18         3.8713    3.6510   -8.7259 C.2       1 <0>         0.7780
     25 O4          2.7154    3.4841   -8.3443 O.2       1 <0>        -0.6119
     26 N4          4.5174    4.8909   -8.6876 N.am      1 <0>        -0.5379
     27 C19         3.8864    6.0938   -8.1956 C.3       1 <0>         0.0589
     28 C20         3.8766    6.3979   -6.7360 C.3       1 <0>        -0.1502
     29 C21         4.7128    7.2189   -7.6719 C.3       1 <0>        -0.1502
     30 Cl1         6.9846    1.0061  -10.4287 Cl        1 <0>        -0.1133
     31 H1          6.7431   -9.1413  -13.9899 H         1 <0>         0.0355
     32 H2          5.1545   -8.3609  -13.6834 H         1 <0>         0.0355
     33 H3          6.1133   -9.0149  -12.3124 H         1 <0>         0.0355
     34 H4          7.3293   -7.0726  -10.6022 H         1 <0>         0.1418
     35 H5          6.1465   -4.6687   -6.8765 H         1 <0>         0.0021
     36 H6          4.4391   -2.9873   -7.5630 H         1 <0>         0.1389
     37 H7          3.9607   -3.8457  -12.2662 H         1 <0>         0.1599
     38 H8          6.4486   -4.0122  -14.6493 H         1 <0>         0.3256
     39 H9          5.8530   -1.5861  -10.5895 H         1 <0>         0.1698
     40 H10         2.4383    1.4728   -8.6848 H         1 <0>         0.1807
     41 H11         1.9117   -0.9114   -9.0185 H         1 <0>         0.1630
     42 H12         5.7072    3.0709   -9.5168 H         1 <0>         0.3233
     43 H13         5.5537    4.9242   -9.0550 H         1 <0>         0.2973
     44 H14         3.1247    5.9747   -8.9803 H         1 <0>         0.1094
     45 H15         2.8525    6.6456   -6.4200 H         1 <0>         0.0750
     46 H16         4.2308    5.5198   -6.1761 H         1 <0>         0.0750
     47 H17         5.7724    7.0334   -7.9016 H         1 <0>         0.0750
     48 H18         4.3942    8.1593   -8.1454 H         1 <0>         0.0750
@<TRIPOS>BOND
     1    1    2 1
     2    1   31 1
     3    1   32 1
     4    1   33 1
     5    2    3 1
     6    3   12 ar
     7    3    4 ar
     8    4    5 ar
     9    4   34 1
    10    5   10 ar
    11    5    6 ar
    12    6    7 ar
    13    7    8 ar
    14    7   35 1
    15    8    9 ar
    16    8   36 1
    17    9   10 ar
    18    9   16 1
    19   10   11 ar
    20   11   12 ar
    21   11   37 1
    22   12   13 1
    23   13   14 1
    24   13   15 2
    25   15   38 1
    26   16   17 1
    27   17   22 ar
    28   17   18 ar
    29   18   19 ar
    30   18   39 1
    31   19   20 ar
    32   19   30 1
    33   20   21 ar
    34   20   23 1
    35   21   22 ar
    36   21   40 1
    37   22   41 1
    38   23   24 am
    39   23   42 1
    40   24   25 2
    41   24   26 am
    42   26   27 1
    43   26   43 1
    44   27   29 1
    45   27   28 1
    46   27   44 1
    47   28   29 1
    48   28   45 1
    49   28   46 1
    50   29   47 1
    51   29   48 1
