@<TRIPOS>MOLECULE
~{N}-(3-ethynylphenyl)-6,7-bis(2-methoxyethoxy)quinazolin-4-amine
52   54    1
SMALL
USER_CHARGES


@<TRIPOS>ATOM
      1 C1         -1.1255   -2.0117   -4.3116 C.3       1 ERL         0.1161 
      2 O1         -0.1330   -1.6782   -3.3506 O.3       1 ERL        -0.4204 
      3 C2          0.8653   -2.6873   -3.2590 C.3       1 ERL         0.1183 
      4 C3          1.8917   -2.2752   -2.2214 C.3       1 ERL         0.1267 
      5 O2          1.2441   -2.1193   -0.9642 O.3       1 ERL        -0.3248 
      6 C4          1.7781   -1.2046   -0.1090 C.ar      1 ERL         0.0840 
      7 C5          3.0913   -1.3524    0.3263 C.ar      1 ERL        -0.1188 
      8 C6          3.6493   -0.4117    1.2094 C.ar      1 ERL        -0.3018 
      9 C7          2.8996    0.6850    1.6650 C.ar      1 ERL         0.4581 
     10 C8          1.5879    0.8085    1.2132 C.ar      1 ERL        -0.2558 
     11 C9          1.0259   -0.1228    0.3350 C.ar      1 ERL         0.1506 
     12 O3         -0.2619    0.0418   -0.0784 O.3       1 ERL        -0.3099 
     13 C10        -0.7488    1.3795   -0.1641 C.3       1 ERL         0.1160 
     14 C11        -1.7944    1.4525   -1.2585 C.3       1 ERL         0.1222 
     15 O4         -2.8617    0.5671   -0.9419 O.3       1 ERL        -0.4263 
     16 C12        -3.8742    0.5952   -1.9382 C.3       1 ERL         0.1196 
     17 N1          3.4231    1.5906    2.5098 N.ar      1 ERL        -0.7148 
     18 C13         4.7000    1.3925    2.8954 C.ar      1 ERL         0.6700 
     19 N2          5.5107    0.3871    2.5281 N.ar      1 ERL        -0.7607 
     20 C14         4.9553   -0.5013    1.6825 C.ar      1 ERL         0.7169 
     21 N3          5.7729   -1.5814    1.2663 N.pl3     1 ERL        -0.7645 
     22 C15         6.8289   -2.2649    1.8896 C.ar      1 ERL         0.1655 
     23 C16         7.8456   -2.8286    1.1187 C.ar      1 ERL        -0.1305 
     24 C17         8.8951   -3.5078    1.7375 C.ar      1 ERL        -0.1110 
     25 C18         8.9278   -3.6235    3.1272 C.ar      1 ERL        -0.1287 
     26 C19         7.9110   -3.0599    3.8980 C.ar      1 ERL         0.0469 
     27 C20         6.8615   -2.3806    3.2792 C.ar      1 ERL        -0.1549 
     28 C21         7.9450   -3.1786    5.3216 C.1       1 ERL        -0.1269 
     29 C22         7.9737   -3.2783    6.5213 C.1       1 ERL        -0.1334 
     30 H1         -1.8782   -1.2107   -4.3545 H         1 ERL         0.0357 
     31 H2         -1.6110   -2.9561   -4.0246 H         1 ERL         0.0357 
     32 H3         -0.6554   -2.1265   -5.2995 H         1 ERL         0.0357 
     33 H4          0.3992   -3.6383   -2.9618 H         1 ERL         0.0442 
     34 H5          1.3548   -2.8087   -4.2366 H         1 ERL         0.0442 
     35 H6          2.6676   -3.0512   -2.1448 H         1 ERL         0.0522 
     36 H7          2.3538   -1.3229   -2.5208 H         1 ERL         0.0522 
     37 H8          3.6649   -2.2044   -0.0313 H         1 ERL         0.1430 
     38 H9          0.9831    1.6491    1.5500 H         1 ERL         0.1670 
     39 H10        -1.1968    1.6689    0.7979 H         1 ERL         0.0609 
     40 H11         0.0840    2.0584   -0.3998 H         1 ERL         0.0609 
     41 H12        -2.1765    2.4813   -1.3325 H         1 ERL         0.0461 
     42 H13        -1.3424    1.1594   -2.2176 H         1 ERL         0.0461 
     43 H14        -4.6808   -0.0994   -1.6609 H         1 ERL         0.0356 
     44 H15        -3.4457    0.2924   -2.9050 H         1 ERL         0.0356 
     45 H16        -4.2799    1.6144   -2.0200 H         1 ERL         0.0356 
     46 H17         5.1158    2.1255    3.5760 H         1 ERL         0.0546 
     47 H18         5.6218   -2.0359    0.2760 H         1 ERL         0.4493 
     48 H19         7.8301   -2.7444    0.0350 H         1 ERL         0.1508 
     49 H20         9.6867   -3.9467    1.1372 H         1 ERL         0.1378 
     50 H21         9.7525   -4.1561    3.5948 H         1 ERL         0.1419 
     51 H22         6.0661   -1.9394    3.8769 H         1 ERL         0.1393 
     52 H23         7.9999   -3.3694    7.6172 H         1 ERL         0.1678 
@<TRIPOS>BOND
     1    1    2 1    
     2    1   30 1    
     3    1   31 1    
     4    1   32 1    
     5    2    3 1    
     6    3    4 1    
     7    3   33 1    
     8    3   34 1    
     9    4    5 1    
    10    4   35 1    
    11    4   36 1    
    12    5    6 1    
    13    6   11 ar   
    14    6    7 ar   
    15    7    8 ar   
    16    7   37 1    
    17    8   20 ar   
    18    8    9 ar   
    19    9   10 ar   
    20    9   17 ar   
    21   10   11 ar   
    22   10   38 1    
    23   11   12 1    
    24   12   13 1    
    25   13   14 1    
    26   13   39 1    
    27   13   40 1    
    28   14   15 1    
    29   14   41 1    
    30   14   42 1    
    31   15   16 1    
    32   16   43 1    
    33   16   44 1    
    34   16   45 1    
    35   17   18 ar   
    36   18   19 ar   
    37   18   46 1    
    38   19   20 ar   
    39   20   21 1    
    40   21   22 1    
    41   21   47 1    
    42   22   27 ar   
    43   22   23 ar   
    44   23   24 ar   
    45   23   48 1    
    46   24   25 ar   
    47   24   49 1    
    48   25   26 ar   
    49   25   50 1    
    50   26   27 ar   
    51   26   28 1    
    52   27   51 1    
    53   28   29 3    
    54   29   52 1    
@<TRIPOS>SUBSTRUCTURE
     1 ERL         1 GROUP             0       ****    0 ROOT    
