~{N}-(3-ethynylphenyl)-6,7-bis(2-methoxyethoxy)quinazolin-4-amine
                    3D
 Structure written by MMmdl.
 52 54  0  0  1  0            999 V2000
   -2.3416   -4.0766   -1.3437 C   0  0  0  0  0  0
   -1.1892   -3.4715   -0.7729 O   0  0  0  0  0  0
   -0.0001   -4.1567   -1.1469 C   0  0  0  0  0  0
    1.1902   -3.4664   -0.5093 C   0  0  0  0  0  0
    1.2441   -2.1193   -0.9642 O   0  0  0  0  0  0
    1.7781   -1.2046   -0.1090 C   0  0  0  0  0  0
    3.0913   -1.3524    0.3263 C   0  0  0  0  0  0
    3.6493   -0.4117    1.2094 C   0  0  0  0  0  0
    2.8996    0.6850    1.6650 C   0  0  0  0  0  0
    1.5879    0.8085    1.2132 C   0  0  0  0  0  0
    1.0259   -0.1228    0.3350 C   0  0  0  0  0  0
   -0.2619    0.0418   -0.0784 O   0  0  0  0  0  0
   -0.5678    1.2442   -0.7817 C   0  0  0  0  0  0
   -1.6967    0.9703   -1.7548 C   0  0  0  0  0  0
   -1.2864   -0.0370   -2.6717 O   0  0  0  0  0  0
   -2.3103   -0.3345   -3.6106 C   0  0  0  0  0  0
    3.4231    1.5906    2.5098 N   0  0  0  0  0  0
    4.7000    1.3925    2.8954 C   0  0  0  0  0  0
    5.5107    0.3871    2.5281 N   0  0  0  0  0  0
    4.9553   -0.5013    1.6825 C   0  0  0  0  0  0
    5.7729   -1.5814    1.2663 N   0  0  0  0  0  0
    6.8289   -2.2649    1.8896 C   0  0  0  0  0  0
    7.8456   -2.8286    1.1187 C   0  0  0  0  0  0
    8.8951   -3.5078    1.7375 C   0  0  0  0  0  0
    8.9278   -3.6235    3.1272 C   0  0  0  0  0  0
    7.9110   -3.0599    3.8980 C   0  0  0  0  0  0
    6.8615   -2.3806    3.2792 C   0  0  0  0  0  0
    7.9450   -3.1786    5.3216 C   0  0  0  0  0  0
    7.9737   -3.2783    6.5213 C   0  0  0  0  0  0
   -3.2390   -3.5213   -1.0334 H   0  0  0  0  0  0
   -2.4175   -5.1184   -0.9989 H   0  0  0  0  0  0
   -2.2601   -4.0583   -2.4405 H   0  0  0  0  0  0
   -0.0532   -5.1993   -0.8002 H   0  0  0  0  0  0
    0.1042   -4.1393   -2.2418 H   0  0  0  0  0  0
    1.0812   -3.4838    0.5851 H   0  0  0  0  0  0
    2.1142   -3.9909   -0.7941 H   0  0  0  0  0  0
    3.6649   -2.2044   -0.0313 H   0  0  0  0  0  0
    0.9831    1.6491    1.5500 H   0  0  0  0  0  0
   -0.8748    2.0202   -0.0650 H   0  0  0  0  0  0
    0.3224    1.5842   -1.3312 H   0  0  0  0  0  0
   -2.5832    0.6278   -1.2009 H   0  0  0  0  0  0
   -1.9404    1.8925   -2.3027 H   0  0  0  0  0  0
   -1.9588   -1.1150   -4.3014 H   0  0  0  0  0  0
   -2.5610    0.5730   -4.1795 H   0  0  0  0  0  0
   -3.2038   -0.6918   -3.0777 H   0  0  0  0  0  0
    5.1158    2.1255    3.5760 H   0  0  0  0  0  0
    5.6218   -2.0359    0.2760 H   0  0  0  0  0  0
    7.8301   -2.7444    0.0350 H   0  0  0  0  0  0
    9.6867   -3.9467    1.1372 H   0  0  0  0  0  0
    9.7525   -4.1561    3.5948 H   0  0  0  0  0  0
    6.0661   -1.9394    3.8769 H   0  0  0  0  0  0
    7.9999   -3.3694    7.6172 H   0  0  0  0  0  0
  1  2  1  0  0  0
  1 30  1  0  0  0
  1 31  1  0  0  0
  1 32  1  0  0  0
  2  3  1  0  0  0
  3  4  1  0  0  0
  3 33  1  0  0  0
  3 34  1  0  0  0
  4  5  1  0  0  0
  4 35  1  0  0  0
  4 36  1  0  0  0
  5  6  1  0  0  0
  6 11  2  0  0  0
  6  7  1  0  0  0
  7  8  2  0  0  0
  7 37  1  0  0  0
  8 20  1  0  0  0
  8  9  1  0  0  0
  9 10  2  0  0  0
  9 17  1  0  0  0
 10 11  1  0  0  0
 10 38  1  0  0  0
 11 12  1  0  0  0
 12 13  1  0  0  0
 13 14  1  0  0  0
 13 39  1  0  0  0
 13 40  1  0  0  0
 14 15  1  0  0  0
 14 41  1  0  0  0
 14 42  1  0  0  0
 15 16  1  0  0  0
 16 43  1  0  0  0
 16 44  1  0  0  0
 16 45  1  0  0  0
 17 18  2  0  0  0
 18 19  1  0  0  0
 18 46  1  0  0  0
 19 20  2  0  0  0
 20 21  1  0  0  0
 21 22  1  0  0  0
 21 47  1  0  0  0
 22 27  2  0  0  0
 22 23  1  0  0  0
 23 24  2  0  0  0
 23 48  1  0  0  0
 24 25  1  0  0  0
 24 49  1  0  0  0
 25 26  2  0  0  0
 25 50  1  0  0  0
 26 27  1  0  0  0
 26 28  1  0  0  0
 27 51  1  0  0  0
 28 29  3  0  0  0
 29 52  1  0  0  0
M  END
> <s_m_source_file>
/Users/andrea/Development/mcce-charges/epik_inhibitors/output/Erlotinib/Erlotinib-input.mol2

> <i_m_source_file_index>
1

> <r_lp_tautomer_probability>
0.999978000241998

> <r_epik_Ionization_Penalty>
  0.0005

> <r_epik_Ionization_Penalty_Charging>
  0.0000

> <r_epik_Ionization_Penalty_Neutral>
  0.0005

> <r_epik_State_Penalty>
  0.0018

> <i_epik_Tot_Q>
0

$$$$
~{N}-(3-ethynylphenyl)-6,7-bis(2-methoxyethoxy)quinazolin-4-amine
                    3D
 Structure written by MMmdl.
 53 55  0  0  1  0            999 V2000
   -2.3411   -4.0745   -1.3480 C   0  0  0  0  0  0
   -1.1888   -3.4698   -0.7764 O   0  0  0  0  0  0
    0.0003   -4.1551   -1.1501 C   0  0  0  0  0  0
    1.1905   -3.4653   -0.5116 C   0  0  0  0  0  0
    1.2449   -2.1180   -0.9660 O   0  0  0  0  0  0
    1.7786   -1.2037   -0.1103 C   0  0  0  0  0  0
    3.0916   -1.3519    0.3256 C   0  0  0  0  0  0
    3.6493   -0.4117    1.2094 C   0  0  0  0  0  0
    2.8994    0.6847    1.6654 C   0  0  0  0  0  0
    1.5878    0.8083    1.2135 C   0  0  0  0  0  0
    1.0263   -0.1221    0.3340 C   0  0  0  0  0  0
   -0.2612    0.0430   -0.0801 O   0  0  0  0  0  0
   -0.5665    1.2458   -0.7829 C   0  0  0  0  0  0
   -1.6948    0.9727   -1.7569 C   0  0  0  0  0  0
   -1.2842   -0.0342   -2.6741 O   0  0  0  0  0  0
   -2.3076   -0.3310   -3.6137 C   0  0  0  0  0  0
    3.4228    1.5901    2.5105 N   0  0  0  0  0  0
    4.6997    1.3919    2.8962 C   0  0  0  0  0  0
    5.5105    0.3867    2.5287 N   0  0  0  0  0  0
    4.9552   -0.5015    1.6828 C   0  0  0  0  0  0
    5.7729   -1.5814    1.2663 N   0  3  0  0  0  0
    6.8289   -2.2650    1.8895 C   0  0  0  0  0  0
    7.8457   -2.8284    1.1185 C   0  0  0  0  0  0
    8.8952   -3.5077    1.7371 C   0  0  0  0  0  0
    8.9279   -3.6237    3.1268 C   0  0  0  0  0  0
    7.9110   -3.0604    3.8977 C   0  0  0  0  0  0
    6.8615   -2.3810    3.2791 C   0  0  0  0  0  0
    7.9450   -3.1794    5.3213 C   0  0  0  0  0  0
    7.9737   -3.2794    6.5210 C   0  0  0  0  0  0
   -3.2385   -3.5191   -1.0379 H   0  0  0  0  0  0
   -2.4174   -5.1164   -1.0036 H   0  0  0  0  0  0
   -2.2590   -4.0559   -2.4448 H   0  0  0  0  0  0
   -0.0532   -5.1978   -0.8037 H   0  0  0  0  0  0
    0.1052   -4.1373   -2.2449 H   0  0  0  0  0  0
    1.0809   -3.4831    0.5828 H   0  0  0  0  0  0
    2.1145   -3.9899   -0.7962 H   0  0  0  0  0  0
    3.6386   -2.1274    0.0102 H   0  0  0  0  0  0
    1.0454    1.5856    1.5322 H   0  0  0  0  0  0
   -0.8737    2.0215   -0.0660 H   0  0  0  0  0  0
    0.3241    1.5859   -1.3317 H   0  0  0  0  0  0
   -2.5817    0.6300   -1.2037 H   0  0  0  0  0  0
   -1.9380    1.8952   -2.3044 H   0  0  0  0  0  0
   -1.9558   -1.1112   -4.3048 H   0  0  0  0  0  0
   -2.5578    0.5768   -4.1823 H   0  0  0  0  0  0
   -3.2015   -0.6884   -3.0816 H   0  0  0  0  0  0
    5.0304    2.0974    3.5231 H   0  0  0  0  0  0
    2.8137    2.4398    2.8525 H   0  0  0  0  0  0
    7.8302   -2.7440    0.0348 H   0  0  0  0  0  0
    9.6869   -3.9464    1.1368 H   0  0  0  0  0  0
    9.7526   -4.1564    3.5943 H   0  0  0  0  0  0
    6.0661   -1.9400    3.8768 H   0  0  0  0  0  0
    7.9999   -3.3707    7.6169 H   0  0  0  0  0  0
    5.6218   -2.0356    0.2759 H   0  0  0  0  0  0
  1  2  1  0  0  0
  1 30  1  0  0  0
  1 31  1  0  0  0
  1 32  1  0  0  0
  2  3  1  0  0  0
  3  4  1  0  0  0
  3 33  1  0  0  0
  3 34  1  0  0  0
  4  5  1  0  0  0
  4 35  1  0  0  0
  4 36  1  0  0  0
  5  6  1  0  0  0
  6  7  2  0  0  0
  6 11  1  0  0  0
  7  8  1  0  0  0
  7 37  1  0  0  0
  8 20  1  0  0  0
  8  9  2  0  0  0
  9 10  1  0  0  0
  9 17  1  0  0  0
 10 11  2  0  0  0
 10 38  1  0  0  0
 11 12  1  0  0  0
 12 13  1  0  0  0
 13 14  1  0  0  0
 13 39  1  0  0  0
 13 40  1  0  0  0
 14 15  1  0  0  0
 14 41  1  0  0  0
 14 42  1  0  0  0
 15 16  1  0  0  0
 16 43  1  0  0  0
 16 44  1  0  0  0
 16 45  1  0  0  0
 17 47  1  0  0  0
 17 18  1  0  0  0
 18 46  1  0  0  0
 18 19  2  0  0  0
 19 20  1  0  0  0
 20 21  2  0  0  0
 21 22  1  0  0  0
 21 53  1  0  0  0
 22 27  2  0  0  0
 22 23  1  0  0  0
 23 24  2  0  0  0
 23 48  1  0  0  0
 24 25  1  0  0  0
 24 49  1  0  0  0
 25 26  2  0  0  0
 25 50  1  0  0  0
 26 27  1  0  0  0
 26 28  1  0  0  0
 27 51  1  0  0  0
 28 29  3  0  0  0
 29 52  1  0  0  0
M  CHG  1  21   1
M  END
> <s_m_source_file>
/Users/andrea/Development/mcce-charges/epik_inhibitors/output/Erlotinib/Erlotinib-input.mol2

> <i_m_source_file_index>
1

> <r_epik_Ionization_Penalty>
  0.2198

> <r_epik_Ionization_Penalty_Charging>
  0.0002

> <r_epik_Ionization_Penalty_Neutral>
  0.2197

> <r_epik_State_Penalty>
  4.0119

> <i_epik_Tot_Q>
1

> <s_epik_Chemistry_Notes>
This compound has an imine and may undergo hydrolysis.

$$$$
~{N}-(3-ethynylphenyl)-6,7-bis(2-methoxyethoxy)quinazolin-4-amine
                    3D
 Structure written by MMmdl.
 53 55  0  0  1  0            999 V2000
   -2.3411   -4.0745   -1.3480 C   0  0  0  0  0  0
   -1.1888   -3.4698   -0.7764 O   0  0  0  0  0  0
    0.0003   -4.1551   -1.1501 C   0  0  0  0  0  0
    1.1905   -3.4653   -0.5116 C   0  0  0  0  0  0
    1.2449   -2.1180   -0.9660 O   0  0  0  0  0  0
    1.7786   -1.2037   -0.1103 C   0  0  0  0  0  0
    3.0916   -1.3519    0.3256 C   0  0  0  0  0  0
    3.6493   -0.4117    1.2094 C   0  0  0  0  0  0
    2.8994    0.6847    1.6654 C   0  0  0  0  0  0
    1.5878    0.8083    1.2135 C   0  0  0  0  0  0
    1.0263   -0.1221    0.3340 C   0  0  0  0  0  0
   -0.2612    0.0430   -0.0801 O   0  0  0  0  0  0
   -0.5665    1.2458   -0.7829 C   0  0  0  0  0  0
   -1.6948    0.9727   -1.7569 C   0  0  0  0  0  0
   -1.2842   -0.0342   -2.6741 O   0  0  0  0  0  0
   -2.3076   -0.3310   -3.6137 C   0  0  0  0  0  0
    3.4228    1.5901    2.5105 N   0  0  0  0  0  0
    4.6997    1.3919    2.8962 C   0  0  0  0  0  0
    5.5105    0.3867    2.5287 N   0  0  0  0  0  0
    4.9552   -0.5015    1.6828 C   0  0  0  0  0  0
    5.7729   -1.5814    1.2663 N   0  3  0  0  0  0
    5.8098   -2.3414    0.0865 C   0  0  0  0  0  0
    6.2270   -3.6718    0.1272 C   0  0  0  0  0  0
    6.2639   -4.4273   -1.0447 C   0  0  0  0  0  0
    5.8838   -3.8524   -2.2574 C   0  0  0  0  0  0
    5.4667   -2.5220   -2.2981 C   0  0  0  0  0  0
    5.4298   -1.7664   -1.1261 C   0  0  0  0  0  0
    5.0773   -1.9335   -3.5406 C   0  0  0  0  0  0
    4.7488   -1.4376   -4.5876 C   0  0  0  0  0  0
   -3.2385   -3.5191   -1.0379 H   0  0  0  0  0  0
   -2.4174   -5.1164   -1.0036 H   0  0  0  0  0  0
   -2.2590   -4.0559   -2.4448 H   0  0  0  0  0  0
   -0.0532   -5.1978   -0.8037 H   0  0  0  0  0  0
    0.1052   -4.1373   -2.2449 H   0  0  0  0  0  0
    1.0809   -3.4831    0.5828 H   0  0  0  0  0  0
    2.1145   -3.9899   -0.7962 H   0  0  0  0  0  0
    3.6386   -2.1274    0.0102 H   0  0  0  0  0  0
    1.0454    1.5856    1.5322 H   0  0  0  0  0  0
   -0.8737    2.0215   -0.0660 H   0  0  0  0  0  0
    0.3241    1.5859   -1.3317 H   0  0  0  0  0  0
   -2.5817    0.6300   -1.2037 H   0  0  0  0  0  0
   -1.9380    1.8952   -2.3044 H   0  0  0  0  0  0
   -1.9558   -1.1112   -4.3048 H   0  0  0  0  0  0
   -2.5578    0.5768   -4.1823 H   0  0  0  0  0  0
   -3.2015   -0.6884   -3.0816 H   0  0  0  0  0  0
    5.0304    2.0974    3.5231 H   0  0  0  0  0  0
    2.8137    2.4398    2.8525 H   0  0  0  0  0  0
    6.5254   -4.1299    1.0668 H   0  0  0  0  0  0
    6.5888   -5.4632   -1.0129 H   0  0  0  0  0  0
    5.9181   -4.4543   -3.1624 H   0  0  0  0  0  0
    5.1050   -0.7280   -1.1534 H   0  0  0  0  0  0
    4.4488   -0.9845   -5.5440 H   0  0  0  0  0  0
    6.5587   -1.9654    1.9335 H   0  0  0  0  0  0
  1  2  1  0  0  0
  1 30  1  0  0  0
  1 31  1  0  0  0
  1 32  1  0  0  0
  2  3  1  0  0  0
  3  4  1  0  0  0
  3 33  1  0  0  0
  3 34  1  0  0  0
  4  5  1  0  0  0
  4 35  1  0  0  0
  4 36  1  0  0  0
  5  6  1  0  0  0
  6  7  2  0  0  0
  6 11  1  0  0  0
  7  8  1  0  0  0
  7 37  1  0  0  0
  8 20  1  0  0  0
  8  9  2  0  0  0
  9 10  1  0  0  0
  9 17  1  0  0  0
 10 11  2  0  0  0
 10 38  1  0  0  0
 11 12  1  0  0  0
 12 13  1  0  0  0
 13 14  1  0  0  0
 13 39  1  0  0  0
 13 40  1  0  0  0
 14 15  1  0  0  0
 14 41  1  0  0  0
 14 42  1  0  0  0
 15 16  1  0  0  0
 16 43  1  0  0  0
 16 44  1  0  0  0
 16 45  1  0  0  0
 17 47  1  0  0  0
 17 18  1  0  0  0
 18 46  1  0  0  0
 18 19  2  0  0  0
 19 20  1  0  0  0
 20 21  2  0  0  0
 21 22  1  0  0  0
 21 53  1  0  0  0
 22 27  2  0  0  0
 22 23  1  0  0  0
 23 24  2  0  0  0
 23 48  1  0  0  0
 24 25  1  0  0  0
 24 49  1  0  0  0
 25 26  2  0  0  0
 25 50  1  0  0  0
 26 27  1  0  0  0
 26 28  1  0  0  0
 27 51  1  0  0  0
 28 29  3  0  0  0
 29 52  1  0  0  0
M  CHG  1  21   1
M  END
> <s_m_source_file>
/Users/andrea/Development/mcce-charges/epik_inhibitors/output/Erlotinib/Erlotinib-input.mol2

> <i_m_source_file_index>
1

> <r_epik_Ionization_Penalty>
  0.2198

> <r_epik_Ionization_Penalty_Charging>
  0.0002

> <r_epik_Ionization_Penalty_Neutral>
  0.2197

> <r_epik_State_Penalty>
  4.0119

> <i_epik_Tot_Q>
1

> <s_epik_Chemistry_Notes>
This compound has an imine and may undergo hydrolysis.

$$$$
~{N}-(3-ethynylphenyl)-6,7-bis(2-methoxyethoxy)quinazolin-4-amine
                    3D
 Structure written by MMmdl.
 53 55  0  0  1  0            999 V2000
   -2.3416   -4.0766   -1.3437 C   0  0  0  0  0  0
   -1.1892   -3.4715   -0.7729 O   0  0  0  0  0  0
   -0.0001   -4.1567   -1.1469 C   0  0  0  0  0  0
    1.1902   -3.4664   -0.5093 C   0  0  0  0  0  0
    1.2441   -2.1193   -0.9642 O   0  0  0  0  0  0
    1.7781   -1.2046   -0.1090 C   0  0  0  0  0  0
    3.0913   -1.3524    0.3263 C   0  0  0  0  0  0
    3.6493   -0.4117    1.2094 C   0  0  0  0  0  0
    2.8996    0.6850    1.6650 C   0  0  0  0  0  0
    1.5879    0.8085    1.2132 C   0  0  0  0  0  0
    1.0259   -0.1228    0.3350 C   0  0  0  0  0  0
   -0.2619    0.0418   -0.0784 O   0  0  0  0  0  0
   -0.5678    1.2442   -0.7817 C   0  0  0  0  0  0
   -1.6967    0.9703   -1.7548 C   0  0  0  0  0  0
   -1.2864   -0.0370   -2.6717 O   0  0  0  0  0  0
   -2.3103   -0.3345   -3.6106 C   0  0  0  0  0  0
    3.4231    1.5906    2.5098 N   0  3  0  0  0  0
    4.7000    1.3925    2.8954 C   0  0  0  0  0  0
    5.5107    0.3871    2.5281 N   0  0  0  0  0  0
    4.9553   -0.5013    1.6825 C   0  0  0  0  0  0
    5.7729   -1.5814    1.2663 N   0  0  0  0  0  0
    6.8289   -2.2649    1.8896 C   0  0  0  0  0  0
    7.8456   -2.8286    1.1187 C   0  0  0  0  0  0
    8.8951   -3.5078    1.7375 C   0  0  0  0  0  0
    8.9278   -3.6235    3.1272 C   0  0  0  0  0  0
    7.9110   -3.0599    3.8980 C   0  0  0  0  0  0
    6.8615   -2.3806    3.2792 C   0  0  0  0  0  0
    7.9450   -3.1786    5.3216 C   0  0  0  0  0  0
    7.9737   -3.2783    6.5213 C   0  0  0  0  0  0
   -3.2390   -3.5213   -1.0334 H   0  0  0  0  0  0
   -2.4175   -5.1184   -0.9989 H   0  0  0  0  0  0
   -2.2601   -4.0583   -2.4405 H   0  0  0  0  0  0
   -0.0532   -5.1993   -0.8002 H   0  0  0  0  0  0
    0.1042   -4.1393   -2.2418 H   0  0  0  0  0  0
    1.0812   -3.4838    0.5851 H   0  0  0  0  0  0
    2.1142   -3.9909   -0.7941 H   0  0  0  0  0  0
    3.6649   -2.2044   -0.0313 H   0  0  0  0  0  0
    0.9831    1.6491    1.5500 H   0  0  0  0  0  0
   -0.8748    2.0202   -0.0650 H   0  0  0  0  0  0
    0.3224    1.5842   -1.3312 H   0  0  0  0  0  0
   -2.5832    0.6278   -1.2009 H   0  0  0  0  0  0
   -1.9404    1.8925   -2.3027 H   0  0  0  0  0  0
   -1.9588   -1.1150   -4.3014 H   0  0  0  0  0  0
   -2.5610    0.5730   -4.1795 H   0  0  0  0  0  0
   -3.2038   -0.6918   -3.0777 H   0  0  0  0  0  0
    5.1158    2.1255    3.5760 H   0  0  0  0  0  0
    5.6218   -2.0359    0.2760 H   0  0  0  0  0  0
    7.8301   -2.7444    0.0350 H   0  0  0  0  0  0
    9.6867   -3.9467    1.1372 H   0  0  0  0  0  0
    9.7525   -4.1561    3.5948 H   0  0  0  0  0  0
    6.0661   -1.9394    3.8769 H   0  0  0  0  0  0
    7.9999   -3.3694    7.6172 H   0  0  0  0  0  0
    2.8141    2.4405    2.8515 H   0  0  0  0  0  0
  1  2  1  0  0  0
  1 30  1  0  0  0
  1 31  1  0  0  0
  1 32  1  0  0  0
  2  3  1  0  0  0
  3  4  1  0  0  0
  3 33  1  0  0  0
  3 34  1  0  0  0
  4  5  1  0  0  0
  4 35  1  0  0  0
  4 36  1  0  0  0
  5  6  1  0  0  0
  6 11  2  0  0  0
  6  7  1  0  0  0
  7  8  2  0  0  0
  7 37  1  0  0  0
  8 20  1  0  0  0
  8  9  1  0  0  0
  9 10  2  0  0  0
  9 17  1  0  0  0
 10 11  1  0  0  0
 10 38  1  0  0  0
 11 12  1  0  0  0
 12 13  1  0  0  0
 13 14  1  0  0  0
 13 39  1  0  0  0
 13 40  1  0  0  0
 14 15  1  0  0  0
 14 41  1  0  0  0
 14 42  1  0  0  0
 15 16  1  0  0  0
 16 43  1  0  0  0
 16 44  1  0  0  0
 16 45  1  0  0  0
 17 18  2  0  0  0
 17 53  1  0  0  0
 18 19  1  0  0  0
 18 46  1  0  0  0
 19 20  2  0  0  0
 20 21  1  0  0  0
 21 22  1  0  0  0
 21 47  1  0  0  0
 22 27  2  0  0  0
 22 23  1  0  0  0
 23 24  2  0  0  0
 23 48  1  0  0  0
 24 25  1  0  0  0
 24 49  1  0  0  0
 25 26  2  0  0  0
 25 50  1  0  0  0
 26 27  1  0  0  0
 26 28  1  0  0  0
 27 51  1  0  0  0
 28 29  3  0  0  0
 29 52  1  0  0  0
M  CHG  1  17   1
M  END
> <s_m_source_file>
/Users/andrea/Development/mcce-charges/epik_inhibitors/output/Erlotinib/Erlotinib-input.mol2

> <i_m_source_file_index>
1

> <r_epik_Ionization_Penalty>
  4.2574

> <r_epik_Ionization_Penalty_Charging>
  4.2571

> <r_epik_Ionization_Penalty_Neutral>
  0.0002

> <r_epik_State_Penalty>
  4.3307

> <i_epik_Tot_Q>
1

$$$$
~{N}-(3-ethynylphenyl)-6,7-bis(2-methoxyethoxy)quinazolin-4-amine
                    3D
 Structure written by MMmdl.
 51 53  0  0  1  0            999 V2000
   -2.3416   -4.0766   -1.3437 C   0  0  0  0  0  0
   -1.1892   -3.4715   -0.7729 O   0  0  0  0  0  0
   -0.0001   -4.1567   -1.1469 C   0  0  0  0  0  0
    1.1902   -3.4664   -0.5093 C   0  0  0  0  0  0
    1.2441   -2.1193   -0.9642 O   0  0  0  0  0  0
    1.7781   -1.2046   -0.1090 C   0  0  0  0  0  0
    3.0913   -1.3524    0.3263 C   0  0  0  0  0  0
    3.6493   -0.4117    1.2094 C   0  0  0  0  0  0
    2.8996    0.6850    1.6650 C   0  0  0  0  0  0
    1.5879    0.8085    1.2132 C   0  0  0  0  0  0
    1.0259   -0.1228    0.3350 C   0  0  0  0  0  0
   -0.2619    0.0418   -0.0784 O   0  0  0  0  0  0
   -0.5678    1.2442   -0.7817 C   0  0  0  0  0  0
   -1.6967    0.9703   -1.7548 C   0  0  0  0  0  0
   -1.2864   -0.0370   -2.6717 O   0  0  0  0  0  0
   -2.3103   -0.3345   -3.6106 C   0  0  0  0  0  0
    3.4231    1.5906    2.5098 N   0  0  0  0  0  0
    4.7000    1.3925    2.8954 C   0  0  0  0  0  0
    5.5107    0.3871    2.5281 N   0  0  0  0  0  0
    4.9553   -0.5013    1.6825 C   0  0  0  0  0  0
    5.7729   -1.5814    1.2663 N   0  5  0  0  0  0
    6.8289   -2.2649    1.8896 C   0  0  0  0  0  0
    7.8456   -2.8286    1.1187 C   0  0  0  0  0  0
    8.8951   -3.5078    1.7375 C   0  0  0  0  0  0
    8.9278   -3.6235    3.1272 C   0  0  0  0  0  0
    7.9110   -3.0599    3.8980 C   0  0  0  0  0  0
    6.8615   -2.3806    3.2792 C   0  0  0  0  0  0
    7.9450   -3.1786    5.3216 C   0  0  0  0  0  0
    7.9737   -3.2783    6.5213 C   0  0  0  0  0  0
   -3.2390   -3.5213   -1.0334 H   0  0  0  0  0  0
   -2.4175   -5.1184   -0.9989 H   0  0  0  0  0  0
   -2.2601   -4.0583   -2.4405 H   0  0  0  0  0  0
   -0.0532   -5.1993   -0.8002 H   0  0  0  0  0  0
    0.1042   -4.1393   -2.2418 H   0  0  0  0  0  0
    1.0812   -3.4838    0.5851 H   0  0  0  0  0  0
    2.1142   -3.9909   -0.7941 H   0  0  0  0  0  0
    3.6649   -2.2044   -0.0313 H   0  0  0  0  0  0
    0.9831    1.6491    1.5500 H   0  0  0  0  0  0
   -0.8748    2.0202   -0.0650 H   0  0  0  0  0  0
    0.3224    1.5842   -1.3312 H   0  0  0  0  0  0
   -2.5832    0.6278   -1.2009 H   0  0  0  0  0  0
   -1.9404    1.8925   -2.3027 H   0  0  0  0  0  0
   -1.9588   -1.1150   -4.3014 H   0  0  0  0  0  0
   -2.5610    0.5730   -4.1795 H   0  0  0  0  0  0
   -3.2038   -0.6918   -3.0777 H   0  0  0  0  0  0
    5.1158    2.1255    3.5760 H   0  0  0  0  0  0
    7.8301   -2.7444    0.0350 H   0  0  0  0  0  0
    9.6867   -3.9467    1.1372 H   0  0  0  0  0  0
    9.7525   -4.1561    3.5948 H   0  0  0  0  0  0
    6.0661   -1.9394    3.8769 H   0  0  0  0  0  0
    7.9999   -3.3694    7.6172 H   0  0  0  0  0  0
  1  2  1  0  0  0
  1 30  1  0  0  0
  1 31  1  0  0  0
  1 32  1  0  0  0
  2  3  1  0  0  0
  3  4  1  0  0  0
  3 33  1  0  0  0
  3 34  1  0  0  0
  4  5  1  0  0  0
  4 35  1  0  0  0
  4 36  1  0  0  0
  5  6  1  0  0  0
  6 11  2  0  0  0
  6  7  1  0  0  0
  7  8  2  0  0  0
  7 37  1  0  0  0
  8 20  1  0  0  0
  8  9  1  0  0  0
  9 10  2  0  0  0
  9 17  1  0  0  0
 10 11  1  0  0  0
 10 38  1  0  0  0
 11 12  1  0  0  0
 12 13  1  0  0  0
 13 14  1  0  0  0
 13 39  1  0  0  0
 13 40  1  0  0  0
 14 15  1  0  0  0
 14 41  1  0  0  0
 14 42  1  0  0  0
 15 16  1  0  0  0
 16 43  1  0  0  0
 16 44  1  0  0  0
 16 45  1  0  0  0
 17 18  2  0  0  0
 18 19  1  0  0  0
 18 46  1  0  0  0
 19 20  2  0  0  0
 20 21  1  0  0  0
 21 22  1  0  0  0
 22 27  2  0  0  0
 22 23  1  0  0  0
 23 24  2  0  0  0
 23 47  1  0  0  0
 24 25  1  0  0  0
 24 48  1  0  0  0
 25 26  2  0  0  0
 25 49  1  0  0  0
 26 27  1  0  0  0
 26 28  1  0  0  0
 27 50  1  0  0  0
 28 29  3  0  0  0
 29 51  1  0  0  0
M  CHG  1  21  -1
M  END
> <s_m_source_file>
/Users/andrea/Development/mcce-charges/epik_inhibitors/output/Erlotinib/Erlotinib-input.mol2

> <i_m_source_file_index>
1

> <r_epik_Ionization_Penalty>
  7.7013

> <r_epik_Ionization_Penalty_Charging>
  7.6890

> <r_epik_Ionization_Penalty_Neutral>
  0.0123

> <r_epik_State_Penalty>
  5.6338

> <i_epik_Tot_Q>
-1

$$$$
~{N}-(3-ethynylphenyl)-6,7-bis(2-methoxyethoxy)quinazolin-4-amine
                    3D
 Structure written by MMmdl.
 53 55  0  0  1  0            999 V2000
   -2.3416   -4.0766   -1.3437 C   0  0  0  0  0  0
   -1.1892   -3.4715   -0.7729 O   0  0  0  0  0  0
   -0.0001   -4.1567   -1.1469 C   0  0  0  0  0  0
    1.1902   -3.4664   -0.5093 C   0  0  0  0  0  0
    1.2441   -2.1193   -0.9642 O   0  0  0  0  0  0
    1.7781   -1.2046   -0.1090 C   0  0  0  0  0  0
    3.0913   -1.3524    0.3263 C   0  0  0  0  0  0
    3.6493   -0.4117    1.2094 C   0  0  0  0  0  0
    2.8996    0.6850    1.6650 C   0  0  0  0  0  0
    1.5879    0.8085    1.2132 C   0  0  0  0  0  0
    1.0259   -0.1228    0.3350 C   0  0  0  0  0  0
   -0.2619    0.0418   -0.0784 O   0  0  0  0  0  0
   -0.5678    1.2442   -0.7817 C   0  0  0  0  0  0
   -1.6967    0.9703   -1.7548 C   0  0  0  0  0  0
   -1.2864   -0.0370   -2.6717 O   0  0  0  0  0  0
   -2.3103   -0.3345   -3.6106 C   0  0  0  0  0  0
    3.4231    1.5906    2.5098 N   0  0  0  0  0  0
    4.7000    1.3925    2.8954 C   0  0  0  0  0  0
    5.5107    0.3871    2.5281 N   0  3  0  0  0  0
    4.9553   -0.5013    1.6825 C   0  0  0  0  0  0
    5.7729   -1.5814    1.2663 N   0  0  0  0  0  0
    6.8289   -2.2649    1.8896 C   0  0  0  0  0  0
    7.8456   -2.8286    1.1187 C   0  0  0  0  0  0
    8.8951   -3.5078    1.7375 C   0  0  0  0  0  0
    8.9278   -3.6235    3.1272 C   0  0  0  0  0  0
    7.9110   -3.0599    3.8980 C   0  0  0  0  0  0
    6.8615   -2.3806    3.2792 C   0  0  0  0  0  0
    7.9450   -3.1786    5.3216 C   0  0  0  0  0  0
    7.9737   -3.2783    6.5213 C   0  0  0  0  0  0
   -3.2390   -3.5213   -1.0334 H   0  0  0  0  0  0
   -2.4175   -5.1184   -0.9989 H   0  0  0  0  0  0
   -2.2601   -4.0583   -2.4405 H   0  0  0  0  0  0
   -0.0532   -5.1993   -0.8002 H   0  0  0  0  0  0
    0.1042   -4.1393   -2.2418 H   0  0  0  0  0  0
    1.0812   -3.4838    0.5851 H   0  0  0  0  0  0
    2.1142   -3.9909   -0.7941 H   0  0  0  0  0  0
    3.6649   -2.2044   -0.0313 H   0  0  0  0  0  0
    0.9831    1.6491    1.5500 H   0  0  0  0  0  0
   -0.8748    2.0202   -0.0650 H   0  0  0  0  0  0
    0.3224    1.5842   -1.3312 H   0  0  0  0  0  0
   -2.5832    0.6278   -1.2009 H   0  0  0  0  0  0
   -1.9404    1.8925   -2.3027 H   0  0  0  0  0  0
   -1.9588   -1.1150   -4.3014 H   0  0  0  0  0  0
   -2.5610    0.5730   -4.1795 H   0  0  0  0  0  0
   -3.2038   -0.6918   -3.0777 H   0  0  0  0  0  0
    5.1158    2.1255    3.5760 H   0  0  0  0  0  0
    5.6218   -2.0359    0.2760 H   0  0  0  0  0  0
    7.8301   -2.7444    0.0350 H   0  0  0  0  0  0
    9.6867   -3.9467    1.1372 H   0  0  0  0  0  0
    9.7525   -4.1561    3.5948 H   0  0  0  0  0  0
    6.0661   -1.9394    3.8769 H   0  0  0  0  0  0
    7.9999   -3.3694    7.6172 H   0  0  0  0  0  0
    6.5388    0.3397    2.9164 H   0  0  0  0  0  0
  1  2  1  0  0  0
  1 30  1  0  0  0
  1 31  1  0  0  0
  1 32  1  0  0  0
  2  3  1  0  0  0
  3  4  1  0  0  0
  3 33  1  0  0  0
  3 34  1  0  0  0
  4  5  1  0  0  0
  4 35  1  0  0  0
  4 36  1  0  0  0
  5  6  1  0  0  0
  6 11  2  0  0  0
  6  7  1  0  0  0
  7  8  2  0  0  0
  7 37  1  0  0  0
  8 20  1  0  0  0
  8  9  1  0  0  0
  9 10  2  0  0  0
  9 17  1  0  0  0
 10 11  1  0  0  0
 10 38  1  0  0  0
 11 12  1  0  0  0
 12 13  1  0  0  0
 13 14  1  0  0  0
 13 39  1  0  0  0
 13 40  1  0  0  0
 14 15  1  0  0  0
 14 41  1  0  0  0
 14 42  1  0  0  0
 15 16  1  0  0  0
 16 43  1  0  0  0
 16 44  1  0  0  0
 16 45  1  0  0  0
 17 18  2  0  0  0
 18 19  1  0  0  0
 18 46  1  0  0  0
 19 20  2  0  0  0
 19 53  1  0  0  0
 20 21  1  0  0  0
 21 22  1  0  0  0
 21 47  1  0  0  0
 22 27  2  0  0  0
 22 23  1  0  0  0
 23 24  2  0  0  0
 23 48  1  0  0  0
 24 25  1  0  0  0
 24 49  1  0  0  0
 25 26  2  0  0  0
 25 50  1  0  0  0
 26 27  1  0  0  0
 26 28  1  0  0  0
 27 51  1  0  0  0
 28 29  3  0  0  0
 29 52  1  0  0  0
M  CHG  1  19   1
M  END
> <s_m_source_file>
/Users/andrea/Development/mcce-charges/epik_inhibitors/output/Erlotinib/Erlotinib-input.mol2

> <i_m_source_file_index>
1

> <r_epik_Ionization_Penalty>
  5.8263

> <r_epik_Ionization_Penalty_Charging>
  5.7964

> <r_epik_Ionization_Penalty_Neutral>
  0.0299

> <r_epik_State_Penalty>
  5.9845

> <i_epik_Tot_Q>
1

$$$$
~{N}-(3-ethynylphenyl)-6,7-bis(2-methoxyethoxy)quinazolin-4-amine
                    3D
 Structure written by MMmdl.
 52 54  0  0  1  0            999 V2000
   -2.3411   -4.0745   -1.3480 C   0  0  0  0  0  0
   -1.1888   -3.4698   -0.7764 O   0  0  0  0  0  0
    0.0003   -4.1551   -1.1501 C   0  0  0  0  0  0
    1.1905   -3.4653   -0.5116 C   0  0  0  0  0  0
    1.2449   -2.1180   -0.9660 O   0  0  0  0  0  0
    1.7786   -1.2037   -0.1103 C   0  0  0  0  0  0
    3.0916   -1.3519    0.3256 C   0  0  0  0  0  0
    3.6493   -0.4117    1.2094 C   0  0  0  0  0  0
    2.8994    0.6847    1.6654 C   0  0  0  0  0  0
    1.5878    0.8083    1.2135 C   0  0  0  0  0  0
    1.0263   -0.1221    0.3340 C   0  0  0  0  0  0
   -0.2612    0.0430   -0.0801 O   0  0  0  0  0  0
   -0.5665    1.2458   -0.7829 C   0  0  0  0  0  0
   -1.6948    0.9727   -1.7569 C   0  0  0  0  0  0
   -1.2842   -0.0342   -2.6741 O   0  0  0  0  0  0
   -2.3076   -0.3310   -3.6137 C   0  0  0  0  0  0
    3.4228    1.5901    2.5105 N   0  0  0  0  0  0
    4.6997    1.3919    2.8962 C   0  0  0  0  0  0
    5.5105    0.3867    2.5287 N   0  0  0  0  0  0
    4.9552   -0.5015    1.6828 C   0  0  0  0  0  0
    5.7729   -1.5814    1.2663 N   0  0  0  0  0  0
    6.8289   -2.2650    1.8895 C   0  0  0  0  0  0
    7.8457   -2.8284    1.1185 C   0  0  0  0  0  0
    8.8952   -3.5077    1.7371 C   0  0  0  0  0  0
    8.9279   -3.6237    3.1268 C   0  0  0  0  0  0
    7.9110   -3.0604    3.8977 C   0  0  0  0  0  0
    6.8615   -2.3810    3.2791 C   0  0  0  0  0  0
    7.9450   -3.1794    5.3213 C   0  0  0  0  0  0
    7.9737   -3.2794    6.5210 C   0  0  0  0  0  0
   -3.2385   -3.5191   -1.0379 H   0  0  0  0  0  0
   -2.4174   -5.1164   -1.0036 H   0  0  0  0  0  0
   -2.2590   -4.0559   -2.4448 H   0  0  0  0  0  0
   -0.0532   -5.1978   -0.8037 H   0  0  0  0  0  0
    0.1052   -4.1373   -2.2449 H   0  0  0  0  0  0
    1.0809   -3.4831    0.5828 H   0  0  0  0  0  0
    2.1145   -3.9899   -0.7962 H   0  0  0  0  0  0
    3.6386   -2.1274    0.0102 H   0  0  0  0  0  0
    1.0454    1.5856    1.5322 H   0  0  0  0  0  0
   -0.8737    2.0215   -0.0660 H   0  0  0  0  0  0
    0.3241    1.5859   -1.3317 H   0  0  0  0  0  0
   -2.5817    0.6300   -1.2037 H   0  0  0  0  0  0
   -1.9380    1.8952   -2.3044 H   0  0  0  0  0  0
   -1.9558   -1.1112   -4.3048 H   0  0  0  0  0  0
   -2.5578    0.5768   -4.1823 H   0  0  0  0  0  0
   -3.2015   -0.6884   -3.0816 H   0  0  0  0  0  0
    5.1379    2.0353    3.5239 H   0  0  0  0  0  0
    6.5385    0.3392    2.9171 H   0  0  0  0  0  0
    7.8302   -2.7440    0.0348 H   0  0  0  0  0  0
    9.6869   -3.9464    1.1368 H   0  0  0  0  0  0
    9.7526   -4.1564    3.5943 H   0  0  0  0  0  0
    6.0661   -1.9400    3.8768 H   0  0  0  0  0  0
    7.9999   -3.3707    7.6169 H   0  0  0  0  0  0
  1  2  1  0  0  0
  1 30  1  0  0  0
  1 31  1  0  0  0
  1 32  1  0  0  0
  2  3  1  0  0  0
  3  4  1  0  0  0
  3 33  1  0  0  0
  3 34  1  0  0  0
  4  5  1  0  0  0
  4 35  1  0  0  0
  4 36  1  0  0  0
  5  6  1  0  0  0
  6  7  2  0  0  0
  6 11  1  0  0  0
  7  8  1  0  0  0
  7 37  1  0  0  0
  8 20  1  0  0  0
  8  9  2  0  0  0
  9 10  1  0  0  0
  9 17  1  0  0  0
 10 11  2  0  0  0
 10 38  1  0  0  0
 11 12  1  0  0  0
 12 13  1  0  0  0
 13 14  1  0  0  0
 13 39  1  0  0  0
 13 40  1  0  0  0
 14 15  1  0  0  0
 14 41  1  0  0  0
 14 42  1  0  0  0
 15 16  1  0  0  0
 16 43  1  0  0  0
 16 44  1  0  0  0
 16 45  1  0  0  0
 17 18  2  0  0  0
 18 46  1  0  0  0
 18 19  1  0  0  0
 19 47  1  0  0  0
 19 20  1  0  0  0
 20 21  2  0  0  0
 21 22  1  0  0  0
 22 27  2  0  0  0
 22 23  1  0  0  0
 23 24  2  0  0  0
 23 48  1  0  0  0
 24 25  1  0  0  0
 24 49  1  0  0  0
 25 26  2  0  0  0
 25 50  1  0  0  0
 26 27  1  0  0  0
 26 28  1  0  0  0
 27 51  1  0  0  0
 28 29  3  0  0  0
 29 52  1  0  0  0
M  END
> <s_m_source_file>
/Users/andrea/Development/mcce-charges/epik_inhibitors/output/Erlotinib/Erlotinib-input.mol2

> <i_m_source_file_index>
1

> <r_lp_tautomer_probability>
9.99989000120999e-06

> <r_epik_Ionization_Penalty>
  4.3943

> <r_epik_Ionization_Penalty_Charging>
  4.3943

> <r_epik_Ionization_Penalty_Neutral>
  0.0000

> <r_epik_State_Penalty>
  7.7555

> <i_epik_Tot_Q>
0

$$$$
~{N}-(3-ethynylphenyl)-6,7-bis(2-methoxyethoxy)quinazolin-4-amine
                    3D
 Structure written by MMmdl.
 52 54  0  0  1  0            999 V2000
   -2.3411   -4.0745   -1.3480 C   0  0  0  0  0  0
   -1.1888   -3.4698   -0.7764 O   0  0  0  0  0  0
    0.0003   -4.1551   -1.1501 C   0  0  0  0  0  0
    1.1905   -3.4653   -0.5116 C   0  0  0  0  0  0
    1.2449   -2.1180   -0.9660 O   0  0  0  0  0  0
    1.7786   -1.2037   -0.1103 C   0  0  0  0  0  0
    3.0916   -1.3519    0.3256 C   0  0  0  0  0  0
    3.6493   -0.4117    1.2094 C   0  0  0  0  0  0
    2.8994    0.6847    1.6654 C   0  0  0  0  0  0
    1.5878    0.8083    1.2135 C   0  0  0  0  0  0
    1.0263   -0.1221    0.3340 C   0  0  0  0  0  0
   -0.2612    0.0430   -0.0801 O   0  0  0  0  0  0
   -0.5665    1.2458   -0.7829 C   0  0  0  0  0  0
   -1.6948    0.9727   -1.7569 C   0  0  0  0  0  0
   -1.2842   -0.0342   -2.6741 O   0  0  0  0  0  0
   -2.3076   -0.3310   -3.6137 C   0  0  0  0  0  0
    3.4228    1.5901    2.5105 N   0  0  0  0  0  0
    4.6997    1.3919    2.8962 C   0  0  0  0  0  0
    5.5105    0.3867    2.5287 N   0  0  0  0  0  0
    4.9552   -0.5015    1.6828 C   0  0  0  0  0  0
    5.7729   -1.5814    1.2663 N   0  0  0  0  0  0
    5.8098   -2.3414    0.0865 C   0  0  0  0  0  0
    6.2270   -3.6718    0.1272 C   0  0  0  0  0  0
    6.2639   -4.4273   -1.0447 C   0  0  0  0  0  0
    5.8838   -3.8524   -2.2574 C   0  0  0  0  0  0
    5.4667   -2.5220   -2.2981 C   0  0  0  0  0  0
    5.4298   -1.7664   -1.1261 C   0  0  0  0  0  0
    5.0773   -1.9335   -3.5406 C   0  0  0  0  0  0
    4.7488   -1.4376   -4.5876 C   0  0  0  0  0  0
   -3.2385   -3.5191   -1.0379 H   0  0  0  0  0  0
   -2.4174   -5.1164   -1.0036 H   0  0  0  0  0  0
   -2.2590   -4.0559   -2.4448 H   0  0  0  0  0  0
   -0.0532   -5.1978   -0.8037 H   0  0  0  0  0  0
    0.1052   -4.1373   -2.2449 H   0  0  0  0  0  0
    1.0809   -3.4831    0.5828 H   0  0  0  0  0  0
    2.1145   -3.9899   -0.7962 H   0  0  0  0  0  0
    3.6386   -2.1274    0.0102 H   0  0  0  0  0  0
    1.0454    1.5856    1.5322 H   0  0  0  0  0  0
   -0.8737    2.0215   -0.0660 H   0  0  0  0  0  0
    0.3241    1.5859   -1.3317 H   0  0  0  0  0  0
   -2.5817    0.6300   -1.2037 H   0  0  0  0  0  0
   -1.9380    1.8952   -2.3044 H   0  0  0  0  0  0
   -1.9558   -1.1112   -4.3048 H   0  0  0  0  0  0
   -2.5578    0.5768   -4.1823 H   0  0  0  0  0  0
   -3.2015   -0.6884   -3.0816 H   0  0  0  0  0  0
    5.1379    2.0353    3.5239 H   0  0  0  0  0  0
    6.5385    0.3392    2.9171 H   0  0  0  0  0  0
    6.5254   -4.1299    1.0668 H   0  0  0  0  0  0
    6.5888   -5.4632   -1.0129 H   0  0  0  0  0  0
    5.9181   -4.4543   -3.1624 H   0  0  0  0  0  0
    5.1050   -0.7280   -1.1534 H   0  0  0  0  0  0
    4.4488   -0.9845   -5.5440 H   0  0  0  0  0  0
  1  2  1  0  0  0
  1 30  1  0  0  0
  1 31  1  0  0  0
  1 32  1  0  0  0
  2  3  1  0  0  0
  3  4  1  0  0  0
  3 33  1  0  0  0
  3 34  1  0  0  0
  4  5  1  0  0  0
  4 35  1  0  0  0
  4 36  1  0  0  0
  5  6  1  0  0  0
  6  7  2  0  0  0
  6 11  1  0  0  0
  7  8  1  0  0  0
  7 37  1  0  0  0
  8 20  1  0  0  0
  8  9  2  0  0  0
  9 10  1  0  0  0
  9 17  1  0  0  0
 10 11  2  0  0  0
 10 38  1  0  0  0
 11 12  1  0  0  0
 12 13  1  0  0  0
 13 14  1  0  0  0
 13 39  1  0  0  0
 13 40  1  0  0  0
 14 15  1  0  0  0
 14 41  1  0  0  0
 14 42  1  0  0  0
 15 16  1  0  0  0
 16 43  1  0  0  0
 16 44  1  0  0  0
 16 45  1  0  0  0
 17 18  2  0  0  0
 18 46  1  0  0  0
 18 19  1  0  0  0
 19 47  1  0  0  0
 19 20  1  0  0  0
 20 21  2  0  0  0
 21 22  1  0  0  0
 22 27  2  0  0  0
 22 23  1  0  0  0
 23 24  2  0  0  0
 23 48  1  0  0  0
 24 25  1  0  0  0
 24 49  1  0  0  0
 25 26  2  0  0  0
 25 50  1  0  0  0
 26 27  1  0  0  0
 26 28  1  0  0  0
 27 51  1  0  0  0
 28 29  3  0  0  0
 29 52  1  0  0  0
M  END
> <s_m_source_file>
/Users/andrea/Development/mcce-charges/epik_inhibitors/output/Erlotinib/Erlotinib-input.mol2

> <i_m_source_file_index>
1

> <r_lp_tautomer_probability>
9.99989000120999e-06

> <r_epik_Ionization_Penalty>
  4.3943

> <r_epik_Ionization_Penalty_Charging>
  4.3943

> <r_epik_Ionization_Penalty_Neutral>
  0.0000

> <r_epik_State_Penalty>
  7.7555

> <i_epik_Tot_Q>
0

$$$$
~{N}-(3-ethynylphenyl)-6,7-bis(2-methoxyethoxy)quinazolin-4-amine
                    3D
 Structure written by MMmdl.
 51 53  0  0  1  0            999 V2000
   -2.3411   -4.0745   -1.3480 C   0  0  0  0  0  0
   -1.1888   -3.4698   -0.7764 O   0  0  0  0  0  0
    0.0003   -4.1551   -1.1501 C   0  0  0  0  0  0
    1.1905   -3.4653   -0.5116 C   0  0  0  0  0  0
    1.2449   -2.1180   -0.9660 O   0  0  0  0  0  0
    1.7786   -1.2037   -0.1103 C   0  0  0  0  0  0
    3.0916   -1.3519    0.3256 C   0  0  0  0  0  0
    3.6493   -0.4117    1.2094 C   0  0  0  0  0  0
    2.8994    0.6847    1.6654 C   0  0  0  0  0  0
    1.5878    0.8083    1.2135 C   0  0  0  0  0  0
    1.0263   -0.1221    0.3340 C   0  0  0  0  0  0
   -0.2612    0.0430   -0.0801 O   0  0  0  0  0  0
   -0.5665    1.2458   -0.7829 C   0  0  0  0  0  0
   -1.6948    0.9727   -1.7569 C   0  0  0  0  0  0
   -1.2842   -0.0342   -2.6741 O   0  0  0  0  0  0
   -2.3076   -0.3310   -3.6137 C   0  0  0  0  0  0
    3.4228    1.5901    2.5105 N   0  0  0  0  0  0
    4.6997    1.3919    2.8962 C   0  0  0  0  0  0
    5.5105    0.3867    2.5287 N   0  5  0  0  0  0
    4.9552   -0.5015    1.6828 C   0  0  0  0  0  0
    5.7729   -1.5814    1.2663 N   0  0  0  0  0  0
    6.8289   -2.2650    1.8895 C   0  0  0  0  0  0
    7.8457   -2.8284    1.1185 C   0  0  0  0  0  0
    8.8952   -3.5077    1.7371 C   0  0  0  0  0  0
    8.9279   -3.6237    3.1268 C   0  0  0  0  0  0
    7.9110   -3.0604    3.8977 C   0  0  0  0  0  0
    6.8615   -2.3810    3.2791 C   0  0  0  0  0  0
    7.9450   -3.1794    5.3213 C   0  0  0  0  0  0
    7.9737   -3.2794    6.5210 C   0  0  0  0  0  0
   -3.2385   -3.5191   -1.0379 H   0  0  0  0  0  0
   -2.4174   -5.1164   -1.0036 H   0  0  0  0  0  0
   -2.2590   -4.0559   -2.4448 H   0  0  0  0  0  0
   -0.0532   -5.1978   -0.8037 H   0  0  0  0  0  0
    0.1052   -4.1373   -2.2449 H   0  0  0  0  0  0
    1.0809   -3.4831    0.5828 H   0  0  0  0  0  0
    2.1145   -3.9899   -0.7962 H   0  0  0  0  0  0
    3.6386   -2.1274    0.0102 H   0  0  0  0  0  0
    1.0454    1.5856    1.5322 H   0  0  0  0  0  0
   -0.8737    2.0215   -0.0660 H   0  0  0  0  0  0
    0.3241    1.5859   -1.3317 H   0  0  0  0  0  0
   -2.5817    0.6300   -1.2037 H   0  0  0  0  0  0
   -1.9380    1.8952   -2.3044 H   0  0  0  0  0  0
   -1.9558   -1.1112   -4.3048 H   0  0  0  0  0  0
   -2.5578    0.5768   -4.1823 H   0  0  0  0  0  0
   -3.2015   -0.6884   -3.0816 H   0  0  0  0  0  0
    5.1379    2.0353    3.5239 H   0  0  0  0  0  0
    7.8302   -2.7440    0.0348 H   0  0  0  0  0  0
    9.6869   -3.9464    1.1368 H   0  0  0  0  0  0
    9.7526   -4.1564    3.5943 H   0  0  0  0  0  0
    6.0661   -1.9400    3.8768 H   0  0  0  0  0  0
    7.9999   -3.3707    7.6169 H   0  0  0  0  0  0
  1  2  1  0  0  0
  1 30  1  0  0  0
  1 31  1  0  0  0
  1 32  1  0  0  0
  2  3  1  0  0  0
  3  4  1  0  0  0
  3 33  1  0  0  0
  3 34  1  0  0  0
  4  5  1  0  0  0
  4 35  1  0  0  0
  4 36  1  0  0  0
  5  6  1  0  0  0
  6  7  2  0  0  0
  6 11  1  0  0  0
  7  8  1  0  0  0
  7 37  1  0  0  0
  8 20  1  0  0  0
  8  9  2  0  0  0
  9 10  1  0  0  0
  9 17  1  0  0  0
 10 11  2  0  0  0
 10 38  1  0  0  0
 11 12  1  0  0  0
 12 13  1  0  0  0
 13 14  1  0  0  0
 13 39  1  0  0  0
 13 40  1  0  0  0
 14 15  1  0  0  0
 14 41  1  0  0  0
 14 42  1  0  0  0
 15 16  1  0  0  0
 16 43  1  0  0  0
 16 44  1  0  0  0
 16 45  1  0  0  0
 17 18  2  0  0  0
 18 46  1  0  0  0
 18 19  1  0  0  0
 19 20  1  0  0  0
 20 21  2  0  0  0
 21 22  1  0  0  0
 22 27  2  0  0  0
 22 23  1  0  0  0
 23 24  2  0  0  0
 23 47  1  0  0  0
 24 25  1  0  0  0
 24 48  1  0  0  0
 25 26  2  0  0  0
 25 49  1  0  0  0
 26 27  1  0  0  0
 26 28  1  0  0  0
 27 50  1  0  0  0
 28 29  3  0  0  0
 29 51  1  0  0  0
M  CHG  1  19  -1
M  END
> <s_m_source_file>
/Users/andrea/Development/mcce-charges/epik_inhibitors/output/Erlotinib/Erlotinib-input.mol2

> <i_m_source_file_index>
1

> <r_epik_Ionization_Penalty>
  9.1272

> <r_epik_Ionization_Penalty_Charging>
  1.1497

> <r_epik_Ionization_Penalty_Neutral>
  7.9775

> <r_epik_State_Penalty>
  8.0976

> <i_epik_Tot_Q>
-1

> <s_epik_Chemistry_Notes>
This compound has an imine and may undergo hydrolysis.

$$$$
~{N}-(3-ethynylphenyl)-6,7-bis(2-methoxyethoxy)quinazolin-4-amine
                    3D
 Structure written by MMmdl.
 51 53  0  0  1  0            999 V2000
   -2.3411   -4.0745   -1.3480 C   0  0  0  0  0  0
   -1.1888   -3.4698   -0.7764 O   0  0  0  0  0  0
    0.0003   -4.1551   -1.1501 C   0  0  0  0  0  0
    1.1905   -3.4653   -0.5116 C   0  0  0  0  0  0
    1.2449   -2.1180   -0.9660 O   0  0  0  0  0  0
    1.7786   -1.2037   -0.1103 C   0  0  0  0  0  0
    3.0916   -1.3519    0.3256 C   0  0  0  0  0  0
    3.6493   -0.4117    1.2094 C   0  0  0  0  0  0
    2.8994    0.6847    1.6654 C   0  0  0  0  0  0
    1.5878    0.8083    1.2135 C   0  0  0  0  0  0
    1.0263   -0.1221    0.3340 C   0  0  0  0  0  0
   -0.2612    0.0430   -0.0801 O   0  0  0  0  0  0
   -0.5665    1.2458   -0.7829 C   0  0  0  0  0  0
   -1.6948    0.9727   -1.7569 C   0  0  0  0  0  0
   -1.2842   -0.0342   -2.6741 O   0  0  0  0  0  0
   -2.3076   -0.3310   -3.6137 C   0  0  0  0  0  0
    3.4228    1.5901    2.5105 N   0  0  0  0  0  0
    4.6997    1.3919    2.8962 C   0  0  0  0  0  0
    5.5105    0.3867    2.5287 N   0  5  0  0  0  0
    4.9552   -0.5015    1.6828 C   0  0  0  0  0  0
    5.7729   -1.5814    1.2663 N   0  0  0  0  0  0
    5.8098   -2.3414    0.0865 C   0  0  0  0  0  0
    6.2270   -3.6718    0.1272 C   0  0  0  0  0  0
    6.2639   -4.4273   -1.0447 C   0  0  0  0  0  0
    5.8838   -3.8524   -2.2574 C   0  0  0  0  0  0
    5.4667   -2.5220   -2.2981 C   0  0  0  0  0  0
    5.4298   -1.7664   -1.1261 C   0  0  0  0  0  0
    5.0773   -1.9335   -3.5406 C   0  0  0  0  0  0
    4.7488   -1.4376   -4.5876 C   0  0  0  0  0  0
   -3.2385   -3.5191   -1.0379 H   0  0  0  0  0  0
   -2.4174   -5.1164   -1.0036 H   0  0  0  0  0  0
   -2.2590   -4.0559   -2.4448 H   0  0  0  0  0  0
   -0.0532   -5.1978   -0.8037 H   0  0  0  0  0  0
    0.1052   -4.1373   -2.2449 H   0  0  0  0  0  0
    1.0809   -3.4831    0.5828 H   0  0  0  0  0  0
    2.1145   -3.9899   -0.7962 H   0  0  0  0  0  0
    3.6386   -2.1274    0.0102 H   0  0  0  0  0  0
    1.0454    1.5856    1.5322 H   0  0  0  0  0  0
   -0.8737    2.0215   -0.0660 H   0  0  0  0  0  0
    0.3241    1.5859   -1.3317 H   0  0  0  0  0  0
   -2.5817    0.6300   -1.2037 H   0  0  0  0  0  0
   -1.9380    1.8952   -2.3044 H   0  0  0  0  0  0
   -1.9558   -1.1112   -4.3048 H   0  0  0  0  0  0
   -2.5578    0.5768   -4.1823 H   0  0  0  0  0  0
   -3.2015   -0.6884   -3.0816 H   0  0  0  0  0  0
    5.1379    2.0353    3.5239 H   0  0  0  0  0  0
    6.5254   -4.1299    1.0668 H   0  0  0  0  0  0
    6.5888   -5.4632   -1.0129 H   0  0  0  0  0  0
    5.9181   -4.4543   -3.1624 H   0  0  0  0  0  0
    5.1050   -0.7280   -1.1534 H   0  0  0  0  0  0
    4.4488   -0.9845   -5.5440 H   0  0  0  0  0  0
  1  2  1  0  0  0
  1 30  1  0  0  0
  1 31  1  0  0  0
  1 32  1  0  0  0
  2  3  1  0  0  0
  3  4  1  0  0  0
  3 33  1  0  0  0
  3 34  1  0  0  0
  4  5  1  0  0  0
  4 35  1  0  0  0
  4 36  1  0  0  0
  5  6  1  0  0  0
  6  7  2  0  0  0
  6 11  1  0  0  0
  7  8  1  0  0  0
  7 37  1  0  0  0
  8 20  1  0  0  0
  8  9  2  0  0  0
  9 10  1  0  0  0
  9 17  1  0  0  0
 10 11  2  0  0  0
 10 38  1  0  0  0
 11 12  1  0  0  0
 12 13  1  0  0  0
 13 14  1  0  0  0
 13 39  1  0  0  0
 13 40  1  0  0  0
 14 15  1  0  0  0
 14 41  1  0  0  0
 14 42  1  0  0  0
 15 16  1  0  0  0
 16 43  1  0  0  0
 16 44  1  0  0  0
 16 45  1  0  0  0
 17 18  2  0  0  0
 18 46  1  0  0  0
 18 19  1  0  0  0
 19 20  1  0  0  0
 20 21  2  0  0  0
 21 22  1  0  0  0
 22 27  2  0  0  0
 22 23  1  0  0  0
 23 24  2  0  0  0
 23 47  1  0  0  0
 24 25  1  0  0  0
 24 48  1  0  0  0
 25 26  2  0  0  0
 25 49  1  0  0  0
 26 27  1  0  0  0
 26 28  1  0  0  0
 27 50  1  0  0  0
 28 29  3  0  0  0
 29 51  1  0  0  0
M  CHG  1  19  -1
M  END
> <s_m_source_file>
/Users/andrea/Development/mcce-charges/epik_inhibitors/output/Erlotinib/Erlotinib-input.mol2

> <i_m_source_file_index>
1

> <r_epik_Ionization_Penalty>
  9.1272

> <r_epik_Ionization_Penalty_Charging>
  1.1497

> <r_epik_Ionization_Penalty_Neutral>
  7.9775

> <r_epik_State_Penalty>
  8.0976

> <i_epik_Tot_Q>
-1

> <s_epik_Chemistry_Notes>
This compound has an imine and may undergo hydrolysis.

$$$$
~{N}-(3-ethynylphenyl)-6,7-bis(2-methoxyethoxy)quinazolin-4-amine
                    3D
 Structure written by MMmdl.
 52 54  0  0  1  0            999 V2000
   -2.3411   -4.0745   -1.3480 C   0  0  0  0  0  0
   -1.1888   -3.4698   -0.7764 O   0  0  0  0  0  0
    0.0003   -4.1551   -1.1501 C   0  0  0  0  0  0
    1.1905   -3.4653   -0.5116 C   0  0  0  0  0  0
    1.2449   -2.1180   -0.9660 O   0  0  0  0  0  0
    1.7786   -1.2037   -0.1103 C   0  0  0  0  0  0
    3.0916   -1.3519    0.3256 C   0  0  0  0  0  0
    3.6493   -0.4117    1.2094 C   0  0  0  0  0  0
    2.8994    0.6847    1.6654 C   0  0  0  0  0  0
    1.5878    0.8083    1.2135 C   0  0  0  0  0  0
    1.0263   -0.1221    0.3340 C   0  0  0  0  0  0
   -0.2612    0.0430   -0.0801 O   0  0  0  0  0  0
   -0.5665    1.2458   -0.7829 C   0  0  0  0  0  0
   -1.6948    0.9727   -1.7569 C   0  0  0  0  0  0
   -1.2842   -0.0342   -2.6741 O   0  0  0  0  0  0
   -2.3076   -0.3310   -3.6137 C   0  0  0  0  0  0
    3.4228    1.5901    2.5105 N   0  0  0  0  0  0
    4.6997    1.3919    2.8962 C   0  0  0  0  0  0
    5.5105    0.3867    2.5287 N   0  0  0  0  0  0
    4.9552   -0.5015    1.6828 C   0  0  0  0  0  0
    5.7729   -1.5814    1.2663 N   0  0  0  0  0  0
    6.8289   -2.2650    1.8895 C   0  0  0  0  0  0
    7.8457   -2.8284    1.1185 C   0  0  0  0  0  0
    8.8952   -3.5077    1.7371 C   0  0  0  0  0  0
    8.9279   -3.6237    3.1268 C   0  0  0  0  0  0
    7.9110   -3.0604    3.8977 C   0  0  0  0  0  0
    6.8615   -2.3810    3.2791 C   0  0  0  0  0  0
    7.9450   -3.1794    5.3213 C   0  0  0  0  0  0
    7.9737   -3.2794    6.5210 C   0  0  0  0  0  0
   -3.2385   -3.5191   -1.0379 H   0  0  0  0  0  0
   -2.4174   -5.1164   -1.0036 H   0  0  0  0  0  0
   -2.2590   -4.0559   -2.4448 H   0  0  0  0  0  0
   -0.0532   -5.1978   -0.8037 H   0  0  0  0  0  0
    0.1052   -4.1373   -2.2449 H   0  0  0  0  0  0
    1.0809   -3.4831    0.5828 H   0  0  0  0  0  0
    2.1145   -3.9899   -0.7962 H   0  0  0  0  0  0
    3.6386   -2.1274    0.0102 H   0  0  0  0  0  0
    1.0454    1.5856    1.5322 H   0  0  0  0  0  0
   -0.8737    2.0215   -0.0660 H   0  0  0  0  0  0
    0.3241    1.5859   -1.3317 H   0  0  0  0  0  0
   -2.5817    0.6300   -1.2037 H   0  0  0  0  0  0
   -1.9380    1.8952   -2.3044 H   0  0  0  0  0  0
   -1.9558   -1.1112   -4.3048 H   0  0  0  0  0  0
   -2.5578    0.5768   -4.1823 H   0  0  0  0  0  0
   -3.2015   -0.6884   -3.0816 H   0  0  0  0  0  0
    5.0304    2.0974    3.5231 H   0  0  0  0  0  0
    2.8137    2.4398    2.8525 H   0  0  0  0  0  0
    7.8302   -2.7440    0.0348 H   0  0  0  0  0  0
    9.6869   -3.9464    1.1368 H   0  0  0  0  0  0
    9.7526   -4.1564    3.5943 H   0  0  0  0  0  0
    6.0661   -1.9400    3.8768 H   0  0  0  0  0  0
    7.9999   -3.3707    7.6169 H   0  0  0  0  0  0
  1  2  1  0  0  0
  1 30  1  0  0  0
  1 31  1  0  0  0
  1 32  1  0  0  0
  2  3  1  0  0  0
  3  4  1  0  0  0
  3 33  1  0  0  0
  3 34  1  0  0  0
  4  5  1  0  0  0
  4 35  1  0  0  0
  4 36  1  0  0  0
  5  6  1  0  0  0
  6  7  2  0  0  0
  6 11  1  0  0  0
  7  8  1  0  0  0
  7 37  1  0  0  0
  8 20  1  0  0  0
  8  9  2  0  0  0
  9 10  1  0  0  0
  9 17  1  0  0  0
 10 11  2  0  0  0
 10 38  1  0  0  0
 11 12  1  0  0  0
 12 13  1  0  0  0
 13 14  1  0  0  0
 13 39  1  0  0  0
 13 40  1  0  0  0
 14 15  1  0  0  0
 14 41  1  0  0  0
 14 42  1  0  0  0
 15 16  1  0  0  0
 16 43  1  0  0  0
 16 44  1  0  0  0
 16 45  1  0  0  0
 17 47  1  0  0  0
 17 18  1  0  0  0
 18 46  1  0  0  0
 18 19  2  0  0  0
 19 20  1  0  0  0
 20 21  2  0  0  0
 21 22  1  0  0  0
 22 27  2  0  0  0
 22 23  1  0  0  0
 23 24  2  0  0  0
 23 48  1  0  0  0
 24 25  1  0  0  0
 24 49  1  0  0  0
 25 26  2  0  0  0
 25 50  1  0  0  0
 26 27  1  0  0  0
 26 28  1  0  0  0
 27 51  1  0  0  0
 28 29  3  0  0  0
 29 52  1  0  0  0
M  END
> <s_m_source_file>
/Users/andrea/Development/mcce-charges/epik_inhibitors/output/Erlotinib/Erlotinib-input.mol2

> <i_m_source_file_index>
1

> <r_lp_tautomer_probability>
9.99989000120999e-07

> <r_epik_Ionization_Penalty>
  7.5203

> <r_epik_Ionization_Penalty_Charging>
  7.5203

> <r_epik_Ionization_Penalty_Neutral>
  0.0000

> <r_epik_State_Penalty>
  9.2260

> <i_epik_Tot_Q>
0

$$$$
~{N}-(3-ethynylphenyl)-6,7-bis(2-methoxyethoxy)quinazolin-4-amine
                    3D
 Structure written by MMmdl.
 52 54  0  0  1  0            999 V2000
   -2.3411   -4.0745   -1.3480 C   0  0  0  0  0  0
   -1.1888   -3.4698   -0.7764 O   0  0  0  0  0  0
    0.0003   -4.1551   -1.1501 C   0  0  0  0  0  0
    1.1905   -3.4653   -0.5116 C   0  0  0  0  0  0
    1.2449   -2.1180   -0.9660 O   0  0  0  0  0  0
    1.7786   -1.2037   -0.1103 C   0  0  0  0  0  0
    3.0916   -1.3519    0.3256 C   0  0  0  0  0  0
    3.6493   -0.4117    1.2094 C   0  0  0  0  0  0
    2.8994    0.6847    1.6654 C   0  0  0  0  0  0
    1.5878    0.8083    1.2135 C   0  0  0  0  0  0
    1.0263   -0.1221    0.3340 C   0  0  0  0  0  0
   -0.2612    0.0430   -0.0801 O   0  0  0  0  0  0
   -0.5665    1.2458   -0.7829 C   0  0  0  0  0  0
   -1.6948    0.9727   -1.7569 C   0  0  0  0  0  0
   -1.2842   -0.0342   -2.6741 O   0  0  0  0  0  0
   -2.3076   -0.3310   -3.6137 C   0  0  0  0  0  0
    3.4228    1.5901    2.5105 N   0  0  0  0  0  0
    4.6997    1.3919    2.8962 C   0  0  0  0  0  0
    5.5105    0.3867    2.5287 N   0  0  0  0  0  0
    4.9552   -0.5015    1.6828 C   0  0  0  0  0  0
    5.7729   -1.5814    1.2663 N   0  0  0  0  0  0
    5.8098   -2.3414    0.0865 C   0  0  0  0  0  0
    6.2270   -3.6718    0.1272 C   0  0  0  0  0  0
    6.2639   -4.4273   -1.0447 C   0  0  0  0  0  0
    5.8838   -3.8524   -2.2574 C   0  0  0  0  0  0
    5.4667   -2.5220   -2.2981 C   0  0  0  0  0  0
    5.4298   -1.7664   -1.1261 C   0  0  0  0  0  0
    5.0773   -1.9335   -3.5406 C   0  0  0  0  0  0
    4.7488   -1.4376   -4.5876 C   0  0  0  0  0  0
   -3.2385   -3.5191   -1.0379 H   0  0  0  0  0  0
   -2.4174   -5.1164   -1.0036 H   0  0  0  0  0  0
   -2.2590   -4.0559   -2.4448 H   0  0  0  0  0  0
   -0.0532   -5.1978   -0.8037 H   0  0  0  0  0  0
    0.1052   -4.1373   -2.2449 H   0  0  0  0  0  0
    1.0809   -3.4831    0.5828 H   0  0  0  0  0  0
    2.1145   -3.9899   -0.7962 H   0  0  0  0  0  0
    3.6386   -2.1274    0.0102 H   0  0  0  0  0  0
    1.0454    1.5856    1.5322 H   0  0  0  0  0  0
   -0.8737    2.0215   -0.0660 H   0  0  0  0  0  0
    0.3241    1.5859   -1.3317 H   0  0  0  0  0  0
   -2.5817    0.6300   -1.2037 H   0  0  0  0  0  0
   -1.9380    1.8952   -2.3044 H   0  0  0  0  0  0
   -1.9558   -1.1112   -4.3048 H   0  0  0  0  0  0
   -2.5578    0.5768   -4.1823 H   0  0  0  0  0  0
   -3.2015   -0.6884   -3.0816 H   0  0  0  0  0  0
    5.0304    2.0974    3.5231 H   0  0  0  0  0  0
    2.8137    2.4398    2.8525 H   0  0  0  0  0  0
    6.5254   -4.1299    1.0668 H   0  0  0  0  0  0
    6.5888   -5.4632   -1.0129 H   0  0  0  0  0  0
    5.9181   -4.4543   -3.1624 H   0  0  0  0  0  0
    5.1050   -0.7280   -1.1534 H   0  0  0  0  0  0
    4.4488   -0.9845   -5.5440 H   0  0  0  0  0  0
  1  2  1  0  0  0
  1 30  1  0  0  0
  1 31  1  0  0  0
  1 32  1  0  0  0
  2  3  1  0  0  0
  3  4  1  0  0  0
  3 33  1  0  0  0
  3 34  1  0  0  0
  4  5  1  0  0  0
  4 35  1  0  0  0
  4 36  1  0  0  0
  5  6  1  0  0  0
  6  7  2  0  0  0
  6 11  1  0  0  0
  7  8  1  0  0  0
  7 37  1  0  0  0
  8 20  1  0  0  0
  8  9  2  0  0  0
  9 10  1  0  0  0
  9 17  1  0  0  0
 10 11  2  0  0  0
 10 38  1  0  0  0
 11 12  1  0  0  0
 12 13  1  0  0  0
 13 14  1  0  0  0
 13 39  1  0  0  0
 13 40  1  0  0  0
 14 15  1  0  0  0
 14 41  1  0  0  0
 14 42  1  0  0  0
 15 16  1  0  0  0
 16 43  1  0  0  0
 16 44  1  0  0  0
 16 45  1  0  0  0
 17 47  1  0  0  0
 17 18  1  0  0  0
 18 46  1  0  0  0
 18 19  2  0  0  0
 19 20  1  0  0  0
 20 21  2  0  0  0
 21 22  1  0  0  0
 22 27  2  0  0  0
 22 23  1  0  0  0
 23 24  2  0  0  0
 23 48  1  0  0  0
 24 25  1  0  0  0
 24 49  1  0  0  0
 25 26  2  0  0  0
 25 50  1  0  0  0
 26 27  1  0  0  0
 26 28  1  0  0  0
 27 51  1  0  0  0
 28 29  3  0  0  0
 29 52  1  0  0  0
M  END
> <s_m_source_file>
/Users/andrea/Development/mcce-charges/epik_inhibitors/output/Erlotinib/Erlotinib-input.mol2

> <i_m_source_file_index>
1

> <r_lp_tautomer_probability>
9.99989000120999e-07

> <r_epik_Ionization_Penalty>
  7.5203

> <r_epik_Ionization_Penalty_Charging>
  7.5203

> <r_epik_Ionization_Penalty_Neutral>
  0.0000

> <r_epik_State_Penalty>
  9.2260

> <i_epik_Tot_Q>
0

$$$$
~{N}-(3-ethynylphenyl)-6,7-bis(2-methoxyethoxy)quinazolin-4-amine
                    3D
 Structure written by MMmdl.
 53 55  0  0  1  0            999 V2000
   -2.3416   -4.0766   -1.3437 C   0  0  0  0  0  0
   -1.1892   -3.4715   -0.7729 O   0  0  0  0  0  0
   -0.0001   -4.1567   -1.1469 C   0  0  0  0  0  0
    1.1902   -3.4664   -0.5093 C   0  0  0  0  0  0
    1.2441   -2.1193   -0.9642 O   0  0  0  0  0  0
    1.7781   -1.2046   -0.1090 C   0  0  0  0  0  0
    3.0913   -1.3524    0.3263 C   0  0  0  0  0  0
    3.6493   -0.4117    1.2094 C   0  0  0  0  0  0
    2.8996    0.6850    1.6650 C   0  0  0  0  0  0
    1.5879    0.8085    1.2132 C   0  0  0  0  0  0
    1.0259   -0.1228    0.3350 C   0  0  0  0  0  0
   -0.2619    0.0418   -0.0784 O   0  0  0  0  0  0
   -0.5678    1.2442   -0.7817 C   0  0  0  0  0  0
   -1.6967    0.9703   -1.7548 C   0  0  0  0  0  0
   -1.2864   -0.0370   -2.6717 O   0  0  0  0  0  0
   -2.3103   -0.3345   -3.6106 C   0  0  0  0  0  0
    3.4231    1.5906    2.5098 N   0  0  0  0  0  0
    4.7000    1.3925    2.8954 C   0  0  0  0  0  0
    5.5107    0.3871    2.5281 N   0  0  0  0  0  0
    4.9553   -0.5013    1.6825 C   0  0  0  0  0  0
    5.7729   -1.5814    1.2663 N   0  3  0  0  0  0
    6.8289   -2.2649    1.8896 C   0  0  0  0  0  0
    7.8456   -2.8286    1.1187 C   0  0  0  0  0  0
    8.8951   -3.5078    1.7375 C   0  0  0  0  0  0
    8.9278   -3.6235    3.1272 C   0  0  0  0  0  0
    7.9110   -3.0599    3.8980 C   0  0  0  0  0  0
    6.8615   -2.3806    3.2792 C   0  0  0  0  0  0
    7.9450   -3.1786    5.3216 C   0  0  0  0  0  0
    7.9737   -3.2783    6.5213 C   0  0  0  0  0  0
   -3.2390   -3.5213   -1.0334 H   0  0  0  0  0  0
   -2.4175   -5.1184   -0.9989 H   0  0  0  0  0  0
   -2.2601   -4.0583   -2.4405 H   0  0  0  0  0  0
   -0.0532   -5.1993   -0.8002 H   0  0  0  0  0  0
    0.1042   -4.1393   -2.2418 H   0  0  0  0  0  0
    1.0812   -3.4838    0.5851 H   0  0  0  0  0  0
    2.1142   -3.9909   -0.7941 H   0  0  0  0  0  0
    3.6649   -2.2044   -0.0313 H   0  0  0  0  0  0
    0.9831    1.6491    1.5500 H   0  0  0  0  0  0
   -0.8748    2.0202   -0.0650 H   0  0  0  0  0  0
    0.3224    1.5842   -1.3312 H   0  0  0  0  0  0
   -2.5832    0.6278   -1.2009 H   0  0  0  0  0  0
   -1.9404    1.8925   -2.3027 H   0  0  0  0  0  0
   -1.9588   -1.1150   -4.3014 H   0  0  0  0  0  0
   -2.5610    0.5730   -4.1795 H   0  0  0  0  0  0
   -3.2038   -0.6918   -3.0777 H   0  0  0  0  0  0
    5.1158    2.1255    3.5760 H   0  0  0  0  0  0
    5.1437   -2.4605    1.0633 H   0  0  0  0  0  0
    7.8301   -2.7444    0.0350 H   0  0  0  0  0  0
    9.6867   -3.9467    1.1372 H   0  0  0  0  0  0
    9.7525   -4.1561    3.5948 H   0  0  0  0  0  0
    6.0661   -1.9394    3.8769 H   0  0  0  0  0  0
    7.9999   -3.3694    7.6172 H   0  0  0  0  0  0
    6.3152   -1.2996    0.3517 H   0  0  0  0  0  0
  1  2  1  0  0  0
  1 30  1  0  0  0
  1 31  1  0  0  0
  1 32  1  0  0  0
  2  3  1  0  0  0
  3  4  1  0  0  0
  3 33  1  0  0  0
  3 34  1  0  0  0
  4  5  1  0  0  0
  4 35  1  0  0  0
  4 36  1  0  0  0
  5  6  1  0  0  0
  6 11  2  0  0  0
  6  7  1  0  0  0
  7  8  2  0  0  0
  7 37  1  0  0  0
  8 20  1  0  0  0
  8  9  1  0  0  0
  9 10  2  0  0  0
  9 17  1  0  0  0
 10 11  1  0  0  0
 10 38  1  0  0  0
 11 12  1  0  0  0
 12 13  1  0  0  0
 13 14  1  0  0  0
 13 39  1  0  0  0
 13 40  1  0  0  0
 14 15  1  0  0  0
 14 41  1  0  0  0
 14 42  1  0  0  0
 15 16  1  0  0  0
 16 43  1  0  0  0
 16 44  1  0  0  0
 16 45  1  0  0  0
 17 18  2  0  0  0
 18 19  1  0  0  0
 18 46  1  0  0  0
 19 20  2  0  0  0
 20 21  1  0  0  0
 21 22  1  0  0  0
 21 47  1  0  0  0
 21 53  1  0  0  0
 22 27  2  0  0  0
 22 23  1  0  0  0
 23 24  2  0  0  0
 23 48  1  0  0  0
 24 25  1  0  0  0
 24 49  1  0  0  0
 25 26  2  0  0  0
 25 50  1  0  0  0
 26 27  1  0  0  0
 26 28  1  0  0  0
 27 51  1  0  0  0
 28 29  3  0  0  0
 29 52  1  0  0  0
M  CHG  1  21   1
M  END
> <s_m_source_file>
/Users/andrea/Development/mcce-charges/epik_inhibitors/output/Erlotinib/Erlotinib-input.mol2

> <i_m_source_file_index>
1

> <r_epik_Ionization_Penalty>
 11.5645

> <r_epik_Ionization_Penalty_Charging>
 11.5645

> <r_epik_Ionization_Penalty_Neutral>
  0.0000

> <r_epik_State_Penalty>
 13.4339

> <i_epik_Tot_Q>
1

$$$$
