~{N}-(3-ethynylphenyl)-6,7-bis(2-methoxyethoxy)quinazolin-4-amine
                    3D
 Structure written by MMmdl.
 52 54  0  0  1  0            999 V2000
   -2.3416   -4.0766   -1.3437 C   0  0  0  0  0  0
   -1.1892   -3.4715   -0.7729 O   0  0  0  0  0  0
   -0.0001   -4.1567   -1.1469 C   0  0  0  0  0  0
    1.1902   -3.4664   -0.5093 C   0  0  0  0  0  0
    1.2441   -2.1193   -0.9642 O   0  0  0  0  0  0
    1.7781   -1.2046   -0.1090 C   0  0  0  0  0  0
    3.0913   -1.3524    0.3263 C   0  0  0  0  0  0
    3.6493   -0.4117    1.2094 C   0  0  0  0  0  0
    2.8996    0.6850    1.6650 C   0  0  0  0  0  0
    1.5879    0.8085    1.2132 C   0  0  0  0  0  0
    1.0259   -0.1228    0.3350 C   0  0  0  0  0  0
   -0.2619    0.0418   -0.0784 O   0  0  0  0  0  0
   -0.5678    1.2442   -0.7817 C   0  0  0  0  0  0
   -1.6967    0.9703   -1.7548 C   0  0  0  0  0  0
   -1.2864   -0.0370   -2.6717 O   0  0  0  0  0  0
   -2.3103   -0.3345   -3.6106 C   0  0  0  0  0  0
    3.4231    1.5906    2.5098 N   0  0  0  0  0  0
    4.7000    1.3925    2.8954 C   0  0  0  0  0  0
    5.5107    0.3871    2.5281 N   0  0  0  0  0  0
    4.9553   -0.5013    1.6825 C   0  0  0  0  0  0
    5.7729   -1.5814    1.2663 N   0  0  0  0  0  0
    6.8289   -2.2649    1.8896 C   0  0  0  0  0  0
    7.8456   -2.8286    1.1187 C   0  0  0  0  0  0
    8.8951   -3.5078    1.7375 C   0  0  0  0  0  0
    8.9278   -3.6235    3.1272 C   0  0  0  0  0  0
    7.9110   -3.0599    3.8980 C   0  0  0  0  0  0
    6.8615   -2.3806    3.2792 C   0  0  0  0  0  0
    7.9450   -3.1786    5.3216 C   0  0  0  0  0  0
    7.9737   -3.2783    6.5213 C   0  0  0  0  0  0
   -3.2390   -3.5213   -1.0334 H   0  0  0  0  0  0
   -2.4175   -5.1184   -0.9989 H   0  0  0  0  0  0
   -2.2601   -4.0583   -2.4405 H   0  0  0  0  0  0
   -0.0532   -5.1993   -0.8002 H   0  0  0  0  0  0
    0.1042   -4.1393   -2.2418 H   0  0  0  0  0  0
    1.0812   -3.4838    0.5851 H   0  0  0  0  0  0
    2.1142   -3.9909   -0.7941 H   0  0  0  0  0  0
    3.6649   -2.2044   -0.0313 H   0  0  0  0  0  0
    0.9831    1.6491    1.5500 H   0  0  0  0  0  0
   -0.8748    2.0202   -0.0650 H   0  0  0  0  0  0
    0.3224    1.5842   -1.3312 H   0  0  0  0  0  0
   -2.5832    0.6278   -1.2009 H   0  0  0  0  0  0
   -1.9404    1.8925   -2.3027 H   0  0  0  0  0  0
   -1.9588   -1.1150   -4.3014 H   0  0  0  0  0  0
   -2.5610    0.5730   -4.1795 H   0  0  0  0  0  0
   -3.2038   -0.6918   -3.0777 H   0  0  0  0  0  0
    5.1158    2.1255    3.5760 H   0  0  0  0  0  0
    5.6218   -2.0359    0.2760 H   0  0  0  0  0  0
    7.8301   -2.7444    0.0350 H   0  0  0  0  0  0
    9.6867   -3.9467    1.1372 H   0  0  0  0  0  0
    9.7525   -4.1561    3.5948 H   0  0  0  0  0  0
    6.0661   -1.9394    3.8769 H   0  0  0  0  0  0
    7.9999   -3.3694    7.6172 H   0  0  0  0  0  0
  1  2  1  0  0  0
  1 30  1  0  0  0
  1 31  1  0  0  0
  1 32  1  0  0  0
  2  3  1  0  0  0
  3  4  1  0  0  0
  3 33  1  0  0  0
  3 34  1  0  0  0
  4  5  1  0  0  0
  4 35  1  0  0  0
  4 36  1  0  0  0
  5  6  1  0  0  0
  6 11  2  0  0  0
  6  7  1  0  0  0
  7  8  2  0  0  0
  7 37  1  0  0  0
  8 20  1  0  0  0
  8  9  1  0  0  0
  9 10  2  0  0  0
  9 17  1  0  0  0
 10 11  1  0  0  0
 10 38  1  0  0  0
 11 12  1  0  0  0
 12 13  1  0  0  0
 13 14  1  0  0  0
 13 39  1  0  0  0
 13 40  1  0  0  0
 14 15  1  0  0  0
 14 41  1  0  0  0
 14 42  1  0  0  0
 15 16  1  0  0  0
 16 43  1  0  0  0
 16 44  1  0  0  0
 16 45  1  0  0  0
 17 18  2  0  0  0
 18 19  1  0  0  0
 18 46  1  0  0  0
 19 20  2  0  0  0
 20 21  1  0  0  0
 21 22  1  0  0  0
 21 47  1  0  0  0
 22 27  2  0  0  0
 22 23  1  0  0  0
 23 24  2  0  0  0
 23 48  1  0  0  0
 24 25  1  0  0  0
 24 49  1  0  0  0
 25 26  2  0  0  0
 25 50  1  0  0  0
 26 27  1  0  0  0
 26 28  1  0  0  0
 27 51  1  0  0  0
 28 29  3  0  0  0
 29 52  1  0  0  0
M  END
> <s_m_source_file>
/Users/choderaj/github/choderalab/mcce-charges/mcce-charges.jchodera/epik_inhibitors/output/Erlotinib/Erlotinib-input.mol2

> <i_m_source_file_index>
1

> <r_lp_tautomer_probability>
0.999978000241998

> <r_epik_Ionization_Penalty>
  0.0005

> <r_epik_Ionization_Penalty_Charging>
  0.0000

> <r_epik_Ionization_Penalty_Neutral>
  0.0005

> <r_epik_State_Penalty>
  0.0007

> <i_epik_Tot_Q>
0

$$$$
~{N}-(3-ethynylphenyl)-6,7-bis(2-methoxyethoxy)quinazolin-4-amine
                    3D
 Structure written by MMmdl.
 53 55  0  0  1  0            999 V2000
   -2.3416   -4.0766   -1.3437 C   0  0  0  0  0  0
   -1.1892   -3.4715   -0.7729 O   0  0  0  0  0  0
   -0.0001   -4.1567   -1.1469 C   0  0  0  0  0  0
    1.1902   -3.4664   -0.5093 C   0  0  0  0  0  0
    1.2441   -2.1193   -0.9642 O   0  0  0  0  0  0
    1.7781   -1.2046   -0.1090 C   0  0  0  0  0  0
    3.0913   -1.3524    0.3263 C   0  0  0  0  0  0
    3.6493   -0.4117    1.2094 C   0  0  0  0  0  0
    2.8996    0.6850    1.6650 C   0  0  0  0  0  0
    1.5879    0.8085    1.2132 C   0  0  0  0  0  0
    1.0259   -0.1228    0.3350 C   0  0  0  0  0  0
   -0.2619    0.0418   -0.0784 O   0  0  0  0  0  0
   -0.5678    1.2442   -0.7817 C   0  0  0  0  0  0
   -1.6967    0.9703   -1.7548 C   0  0  0  0  0  0
   -1.2864   -0.0370   -2.6717 O   0  0  0  0  0  0
   -2.3103   -0.3345   -3.6106 C   0  0  0  0  0  0
    3.4231    1.5906    2.5098 N   0  3  0  0  0  0
    4.7000    1.3925    2.8954 C   0  0  0  0  0  0
    5.5107    0.3871    2.5281 N   0  0  0  0  0  0
    4.9553   -0.5013    1.6825 C   0  0  0  0  0  0
    5.7729   -1.5814    1.2663 N   0  0  0  0  0  0
    6.8289   -2.2649    1.8896 C   0  0  0  0  0  0
    7.8456   -2.8286    1.1187 C   0  0  0  0  0  0
    8.8951   -3.5078    1.7375 C   0  0  0  0  0  0
    8.9278   -3.6235    3.1272 C   0  0  0  0  0  0
    7.9110   -3.0599    3.8980 C   0  0  0  0  0  0
    6.8615   -2.3806    3.2792 C   0  0  0  0  0  0
    7.9450   -3.1786    5.3216 C   0  0  0  0  0  0
    7.9737   -3.2783    6.5213 C   0  0  0  0  0  0
   -3.2390   -3.5213   -1.0334 H   0  0  0  0  0  0
   -2.4175   -5.1184   -0.9989 H   0  0  0  0  0  0
   -2.2601   -4.0583   -2.4405 H   0  0  0  0  0  0
   -0.0532   -5.1993   -0.8002 H   0  0  0  0  0  0
    0.1042   -4.1393   -2.2418 H   0  0  0  0  0  0
    1.0812   -3.4838    0.5851 H   0  0  0  0  0  0
    2.1142   -3.9909   -0.7941 H   0  0  0  0  0  0
    3.6649   -2.2044   -0.0313 H   0  0  0  0  0  0
    0.9831    1.6491    1.5500 H   0  0  0  0  0  0
   -0.8748    2.0202   -0.0650 H   0  0  0  0  0  0
    0.3224    1.5842   -1.3312 H   0  0  0  0  0  0
   -2.5832    0.6278   -1.2009 H   0  0  0  0  0  0
   -1.9404    1.8925   -2.3027 H   0  0  0  0  0  0
   -1.9588   -1.1150   -4.3014 H   0  0  0  0  0  0
   -2.5610    0.5730   -4.1795 H   0  0  0  0  0  0
   -3.2038   -0.6918   -3.0777 H   0  0  0  0  0  0
    5.1158    2.1255    3.5760 H   0  0  0  0  0  0
    5.6218   -2.0359    0.2760 H   0  0  0  0  0  0
    7.8301   -2.7444    0.0350 H   0  0  0  0  0  0
    9.6867   -3.9467    1.1372 H   0  0  0  0  0  0
    9.7525   -4.1561    3.5948 H   0  0  0  0  0  0
    6.0661   -1.9394    3.8769 H   0  0  0  0  0  0
    7.9999   -3.3694    7.6172 H   0  0  0  0  0  0
    2.8141    2.4405    2.8515 H   0  0  0  0  0  0
  1  2  1  0  0  0
  1 30  1  0  0  0
  1 31  1  0  0  0
  1 32  1  0  0  0
  2  3  1  0  0  0
  3  4  1  0  0  0
  3 33  1  0  0  0
  3 34  1  0  0  0
  4  5  1  0  0  0
  4 35  1  0  0  0
  4 36  1  0  0  0
  5  6  1  0  0  0
  6 11  2  0  0  0
  6  7  1  0  0  0
  7  8  2  0  0  0
  7 37  1  0  0  0
  8 20  1  0  0  0
  8  9  1  0  0  0
  9 10  2  0  0  0
  9 17  1  0  0  0
 10 11  1  0  0  0
 10 38  1  0  0  0
 11 12  1  0  0  0
 12 13  1  0  0  0
 13 14  1  0  0  0
 13 39  1  0  0  0
 13 40  1  0  0  0
 14 15  1  0  0  0
 14 41  1  0  0  0
 14 42  1  0  0  0
 15 16  1  0  0  0
 16 43  1  0  0  0
 16 44  1  0  0  0
 16 45  1  0  0  0
 17 18  2  0  0  0
 17 53  1  0  0  0
 18 19  1  0  0  0
 18 46  1  0  0  0
 19 20  2  0  0  0
 20 21  1  0  0  0
 21 22  1  0  0  0
 21 47  1  0  0  0
 22 27  2  0  0  0
 22 23  1  0  0  0
 23 24  2  0  0  0
 23 48  1  0  0  0
 24 25  1  0  0  0
 24 49  1  0  0  0
 25 26  2  0  0  0
 25 50  1  0  0  0
 26 27  1  0  0  0
 26 28  1  0  0  0
 27 51  1  0  0  0
 28 29  3  0  0  0
 29 52  1  0  0  0
M  CHG  1  17   1
M  END
> <s_m_source_file>
/Users/choderaj/github/choderalab/mcce-charges/mcce-charges.jchodera/epik_inhibitors/output/Erlotinib/Erlotinib-input.mol2

> <i_m_source_file_index>
1

> <r_lp_tautomer_probability>
0.993507999998615

> <r_epik_Ionization_Penalty>
  4.2574

> <r_epik_Ionization_Penalty_Charging>
  4.2571

> <r_epik_Ionization_Penalty_Neutral>
  0.0002

> <r_epik_State_Penalty>
  4.0304

> <i_epik_Tot_Q>
1

$$$$
