@<TRIPOS>MOLECULE
~{N}-(3-ethynylphenyl)-6,7-bis(2-methoxyethoxy)quinazolin-4-amine
   52    54     0     0     0
SMALL
USER_CHARGES

@<TRIPOS>ATOM
      1 C1         -2.3416   -4.0766   -1.3437 C.3       1 ERL         0.1165
      2 O1         -1.1892   -3.4715   -0.7729 O.3       1 ERL        -0.4214
      3 C2         -0.0001   -4.1567   -1.1469 C.3       1 ERL         0.1210
      4 C3          1.1902   -3.4664   -0.5093 C.3       1 ERL         0.1281
      5 O2          1.2441   -2.1193   -0.9642 O.3       1 ERL        -0.3275
      6 C4          1.7781   -1.2046   -0.1090 C.ar      1 ERL         0.0933
      7 C5          3.0913   -1.3524    0.3263 C.ar      1 ERL        -0.1286
      8 C6          3.6493   -0.4117    1.2094 C.ar      1 ERL        -0.2871
      9 C7          2.8996    0.6850    1.6650 C.ar      1 ERL         0.4425
     10 C8          1.5879    0.8085    1.2132 C.ar      1 ERL        -0.2158
     11 C9          1.0259   -0.1228    0.3350 C.ar      1 ERL         0.1317
     12 O3         -0.2619    0.0418   -0.0784 O.3       1 ERL        -0.3278
     13 C10        -0.5678    1.2442   -0.7817 C.3       1 ERL         0.1269
     14 C11        -1.6967    0.9703   -1.7548 C.3       1 ERL         0.1235
     15 O4         -1.2864   -0.0370   -2.6717 O.3       1 ERL        -0.4243
     16 C12        -2.3103   -0.3345   -3.6106 C.3       1 ERL         0.1194
     17 N1          3.4231    1.5906    2.5098 N.ar      1 ERL        -0.7096
     18 C13         4.7000    1.3925    2.8954 C.ar      1 ERL         0.6679
     19 N2          5.5107    0.3871    2.5281 N.ar      1 ERL        -0.7556
     20 C14         4.9553   -0.5013    1.6825 C.ar      1 ERL         0.7112
     21 N3          5.7729   -1.5814    1.2663 N.pl3     1 ERL        -0.7614
     22 C15         6.8289   -2.2649    1.8896 C.ar      1 ERL         0.1636
     23 C16         7.8456   -2.8286    1.1187 C.ar      1 ERL        -0.1722
     24 C17         8.8951   -3.5078    1.7375 C.ar      1 ERL        -0.1077
     25 C18         8.9278   -3.6235    3.1272 C.ar      1 ERL        -0.1299
     26 C19         7.9110   -3.0599    3.8980 C.ar      1 ERL         0.0476
     27 C20         6.8615   -2.3806    3.2792 C.ar      1 ERL        -0.1170
     28 C21         7.9450   -3.1786    5.3216 C.1       1 ERL        -0.1265
     29 C22         7.9737   -3.2783    6.5213 C.1       1 ERL        -0.1312
     30 H1         -3.2336   -3.5256   -1.0359 H         1 ERL         0.0360
     31 H2         -2.4101   -5.1160   -1.0129 H         1 ERL         0.0360
     32 H3         -2.2559   -4.0477   -2.4325 H         1 ERL         0.0360
     33 H4         -0.0832   -5.1937   -0.8074 H         1 ERL         0.0434
     34 H5          0.0815   -4.1311   -2.2375 H         1 ERL         0.0434
     35 H6          2.1275   -3.9580   -0.7880 H         1 ERL         0.0518
     36 H7          1.0888   -3.4565    0.5799 H         1 ERL         0.0518
     37 H8          3.6649   -2.2044   -0.0313 H         1 ERL         0.1434
     38 H9          0.9831    1.6491    1.5500 H         1 ERL         0.1674
     39 H10        -0.8526    2.0015   -0.0466 H         1 ERL         0.0545
     40 H11         0.3312    1.5632   -1.3146 H         1 ERL         0.0545
     41 H12        -1.9533    1.8676   -2.3266 H         1 ERL         0.0436
     42 H13        -2.5801    0.6083   -1.2208 H         1 ERL         0.0436
     43 H14        -1.9583   -1.1087   -4.2941 H         1 ERL         0.0352
     44 H15        -2.5664    0.5709   -4.1634 H         1 ERL         0.0352
     45 H16        -3.1873   -0.6942   -3.0707 H         1 ERL         0.0352
     46 H17         5.1158    2.1255    3.5760 H         1 ERL         0.0559
     47 H18         5.5465   -1.9200    0.3387 H         1 ERL         0.4482
     48 H19         7.8301   -2.7444    0.0350 H         1 ERL         0.1327
     49 H20         9.6867   -3.9467    1.1372 H         1 ERL         0.1359
     50 H21         9.7525   -4.1561    3.5948 H         1 ERL         0.1419
     51 H22         6.0661   -1.9394    3.8769 H         1 ERL         0.1572
     52 H23         7.9992   -3.3661    7.5823 H         1 ERL         0.1678
@<TRIPOS>BOND
     1    1    2 1
     2    2    3 1
     3    3    4 1
     4    4    5 1
     5    5    6 1
     6    6   11 ar
     7    6    7 ar
     8    7    8 ar
     9    8   20 ar
    10    8    9 ar
    11    9   10 ar
    12   10   11 ar
    13   11   12 1
    14   12   13 1
    15   13   14 1
    16   14   15 1
    17   15   16 1
    18    9   17 ar
    19   17   18 ar
    20   18   19 ar
    21   19   20 ar
    22   20   21 1
    23   21   22 1
    24   22   27 ar
    25   22   23 ar
    26   23   24 ar
    27   24   25 ar
    28   25   26 ar
    29   26   27 ar
    30   26   28 1
    31   28   29 3
    32    1   30 1
    33    1   31 1
    34    1   32 1
    35    3   33 1
    36    3   34 1
    37    4   35 1
    38    4   36 1
    39    7   37 1
    40   10   38 1
    41   13   39 1
    42   13   40 1
    43   14   41 1
    44   14   42 1
    45   16   43 1
    46   16   44 1
    47   16   45 1
    48   18   46 1
    49   21   47 1
    50   23   48 1
    51   24   49 1
    52   25   50 1
    53   27   51 1
    54   29   52 1
