~{N}-(3-ethynylphenyl)-6,7-bis(2-methoxyethoxy)quinazolin-4-amine
                    3D
 Structure written by MMmdl.
 52 54  0  0  1  0            999 V2000
   -1.1255   -2.0117   -4.3116 C   0  0  0  0  0  0
   -0.1330   -1.6782   -3.3506 O   0  0  0  0  0  0
    0.8653   -2.6873   -3.2590 C   0  0  0  0  0  0
    1.8917   -2.2752   -2.2214 C   0  0  0  0  0  0
    1.2441   -2.1193   -0.9642 O   0  0  0  0  0  0
    1.7781   -1.2046   -0.1090 C   0  0  0  0  0  0
    3.0913   -1.3524    0.3263 C   0  0  0  0  0  0
    3.6493   -0.4117    1.2094 C   0  0  0  0  0  0
    2.8996    0.6850    1.6650 C   0  0  0  0  0  0
    1.5879    0.8085    1.2132 C   0  0  0  0  0  0
    1.0259   -0.1228    0.3350 C   0  0  0  0  0  0
   -0.2619    0.0418   -0.0784 O   0  0  0  0  0  0
   -0.7488    1.3795   -0.1641 C   0  0  0  0  0  0
   -1.7944    1.4525   -1.2585 C   0  0  0  0  0  0
   -2.8617    0.5671   -0.9419 O   0  0  0  0  0  0
   -3.8742    0.5952   -1.9382 C   0  0  0  0  0  0
    3.4231    1.5906    2.5098 N   0  0  0  0  0  0
    4.7000    1.3925    2.8954 C   0  0  0  0  0  0
    5.5107    0.3871    2.5281 N   0  0  0  0  0  0
    4.9553   -0.5013    1.6825 C   0  0  0  0  0  0
    5.7729   -1.5814    1.2663 N   0  0  0  0  0  0
    6.8289   -2.2649    1.8896 C   0  0  0  0  0  0
    7.8456   -2.8286    1.1187 C   0  0  0  0  0  0
    8.8951   -3.5078    1.7375 C   0  0  0  0  0  0
    8.9278   -3.6235    3.1272 C   0  0  0  0  0  0
    7.9110   -3.0599    3.8980 C   0  0  0  0  0  0
    6.8615   -2.3806    3.2792 C   0  0  0  0  0  0
    7.9450   -3.1786    5.3216 C   0  0  0  0  0  0
    7.9737   -3.2783    6.5213 C   0  0  0  0  0  0
   -1.8782   -1.2107   -4.3545 H   0  0  0  0  0  0
   -1.6110   -2.9561   -4.0246 H   0  0  0  0  0  0
   -0.6554   -2.1265   -5.2995 H   0  0  0  0  0  0
    0.3992   -3.6383   -2.9618 H   0  0  0  0  0  0
    1.3548   -2.8087   -4.2366 H   0  0  0  0  0  0
    2.6676   -3.0512   -2.1448 H   0  0  0  0  0  0
    2.3538   -1.3229   -2.5208 H   0  0  0  0  0  0
    3.6649   -2.2044   -0.0313 H   0  0  0  0  0  0
    0.9831    1.6491    1.5500 H   0  0  0  0  0  0
   -1.1968    1.6689    0.7979 H   0  0  0  0  0  0
    0.0840    2.0584   -0.3998 H   0  0  0  0  0  0
   -2.1765    2.4813   -1.3325 H   0  0  0  0  0  0
   -1.3424    1.1594   -2.2176 H   0  0  0  0  0  0
   -4.6808   -0.0994   -1.6609 H   0  0  0  0  0  0
   -3.4457    0.2924   -2.9050 H   0  0  0  0  0  0
   -4.2799    1.6144   -2.0200 H   0  0  0  0  0  0
    5.1158    2.1255    3.5760 H   0  0  0  0  0  0
    5.6218   -2.0359    0.2760 H   0  0  0  0  0  0
    7.8301   -2.7444    0.0350 H   0  0  0  0  0  0
    9.6867   -3.9467    1.1372 H   0  0  0  0  0  0
    9.7525   -4.1561    3.5948 H   0  0  0  0  0  0
    6.0661   -1.9394    3.8769 H   0  0  0  0  0  0
    7.9999   -3.3694    7.6172 H   0  0  0  0  0  0
  1  2  1  0  0  0
  1 30  1  0  0  0
  1 31  1  0  0  0
  1 32  1  0  0  0
  2  3  1  0  0  0
  3  4  1  0  0  0
  3 33  1  0  0  0
  3 34  1  0  0  0
  4  5  1  0  0  0
  4 35  1  0  0  0
  4 36  1  0  0  0
  5  6  1  0  0  0
  6 11  2  0  0  0
  6  7  1  0  0  0
  7  8  2  0  0  0
  7 37  1  0  0  0
  8 20  1  0  0  0
  8  9  1  0  0  0
  9 10  2  0  0  0
  9 17  1  0  0  0
 10 11  1  0  0  0
 10 38  1  0  0  0
 11 12  1  0  0  0
 12 13  1  0  0  0
 13 14  1  0  0  0
 13 39  1  0  0  0
 13 40  1  0  0  0
 14 15  1  0  0  0
 14 41  1  0  0  0
 14 42  1  0  0  0
 15 16  1  0  0  0
 16 43  1  0  0  0
 16 44  1  0  0  0
 16 45  1  0  0  0
 17 18  2  0  0  0
 18 19  1  0  0  0
 18 46  1  0  0  0
 19 20  2  0  0  0
 20 21  1  0  0  0
 21 22  1  0  0  0
 21 47  1  0  0  0
 22 27  2  0  0  0
 22 23  1  0  0  0
 23 24  2  0  0  0
 23 48  1  0  0  0
 24 25  1  0  0  0
 24 49  1  0  0  0
 25 26  2  0  0  0
 25 50  1  0  0  0
 26 27  1  0  0  0
 26 28  1  0  0  0
 27 51  1  0  0  0
 28 29  3  0  0  0
 29 52  1  0  0  0
M  END
> <s_m_source_file>
/cbio/jclab/home/andrrizzi/epik_inhibitors/output/Erlotinib/Erlotinib-input.mol2

> <i_m_source_file_index>
1

> <r_lp_tautomer_probability>
0.999978000241998

> <r_epik_Ionization_Penalty>
  0.0005

> <r_epik_Ionization_Penalty_Charging>
  0.0000

> <r_epik_Ionization_Penalty_Neutral>
  0.0005

> <r_epik_State_Penalty>
  0.0003

> <i_epik_Tot_Q>
0

$$$$
