@<TRIPOS>MOLECULE
~{N}-(3-ethynylphenyl)-6,7-bis(2-methoxyethoxy)quinazolin-4-amine
   52    54     0     0     0
SMALL
USER_CHARGES

@<TRIPOS>ATOM
      1 C1         -1.1255   -2.0117   -4.3116 C.3       1 ERL         0.1161
      2 O1         -0.1330   -1.6782   -3.3506 O.3       1 ERL        -0.4204
      3 C2          0.8653   -2.6873   -3.2590 C.3       1 ERL         0.1183
      4 C3          1.8917   -2.2752   -2.2214 C.3       1 ERL         0.1267
      5 O2          1.2441   -2.1193   -0.9642 O.3       1 ERL        -0.3248
      6 C4          1.7781   -1.2046   -0.1090 C.ar      1 ERL         0.0840
      7 C5          3.0913   -1.3524    0.3263 C.ar      1 ERL        -0.1188
      8 C6          3.6493   -0.4117    1.2094 C.ar      1 ERL        -0.3018
      9 C7          2.8996    0.6850    1.6650 C.ar      1 ERL         0.4581
     10 C8          1.5879    0.8085    1.2132 C.ar      1 ERL        -0.2558
     11 C9          1.0259   -0.1228    0.3350 C.ar      1 ERL         0.1506
     12 O3         -0.2619    0.0418   -0.0784 O.3       1 ERL        -0.3099
     13 C10        -0.7488    1.3795   -0.1641 C.3       1 ERL         0.1160
     14 C11        -1.7944    1.4525   -1.2585 C.3       1 ERL         0.1222
     15 O4         -2.8617    0.5671   -0.9419 O.3       1 ERL        -0.4263
     16 C12        -3.8742    0.5952   -1.9382 C.3       1 ERL         0.1196
     17 N1          3.4231    1.5906    2.5098 N.ar      1 ERL        -0.7148
     18 C13         4.7000    1.3925    2.8954 C.ar      1 ERL         0.6700
     19 N2          5.5107    0.3871    2.5281 N.ar      1 ERL        -0.7607
     20 C14         4.9553   -0.5013    1.6825 C.ar      1 ERL         0.7169
     21 N3          5.7729   -1.5814    1.2663 N.pl3     1 ERL        -0.7645
     22 C15         6.8289   -2.2649    1.8896 C.ar      1 ERL         0.1655
     23 C16         7.8456   -2.8286    1.1187 C.ar      1 ERL        -0.1305
     24 C17         8.8951   -3.5078    1.7375 C.ar      1 ERL        -0.1110
     25 C18         8.9278   -3.6235    3.1272 C.ar      1 ERL        -0.1287
     26 C19         7.9110   -3.0599    3.8980 C.ar      1 ERL         0.0469
     27 C20         6.8615   -2.3806    3.2792 C.ar      1 ERL        -0.1549
     28 C21         7.9450   -3.1786    5.3216 C.1       1 ERL        -0.1269
     29 C22         7.9737   -3.2783    6.5213 C.1       1 ERL        -0.1334
     30 H1         -1.8737   -1.2165   -4.3549 H         1 ERL         0.0357
     31 H2         -1.5987   -2.9572   -4.0349 H         1 ERL         0.0357
     32 H3         -0.6515   -2.1166   -5.2904 H         1 ERL         0.0357
     33 H4          0.3767   -3.6257   -2.9795 H         1 ERL         0.0442
     34 H5          1.3353   -2.7944   -4.2409 H         1 ERL         0.0442
     35 H6          2.3583   -1.3209   -2.4851 H         1 ERL         0.0522
     36 H7          2.6614   -3.0455   -2.1172 H         1 ERL         0.0522
     37 H8          3.6649   -2.2044   -0.0313 H         1 ERL         0.1430
     38 H9          0.9831    1.6491    1.5500 H         1 ERL         0.1670
     39 H10        -1.1722    1.6471    0.8076 H         1 ERL         0.0609
     40 H11         0.0958    2.0336   -0.3941 H         1 ERL         0.0609
     41 H12        -1.3778    1.1522   -2.2251 H         1 ERL         0.0461
     42 H13        -2.1997    2.4659   -1.3306 H         1 ERL         0.0461
     43 H14        -4.6725   -0.0947   -1.6600 H         1 ERL         0.0356
     44 H15        -3.4428    0.3079   -2.8985 H         1 ERL         0.0356
     45 H16        -4.2729    1.6085   -2.0043 H         1 ERL         0.0356
     46 H17         5.1158    2.1255    3.5760 H         1 ERL         0.0546
     47 H18         5.5465   -1.9200    0.3387 H         1 ERL         0.4493
     48 H19         7.8301   -2.7444    0.0350 H         1 ERL         0.1508
     49 H20         9.6867   -3.9467    1.1372 H         1 ERL         0.1378
     50 H21         9.7525   -4.1561    3.5948 H         1 ERL         0.1419
     51 H22         6.0661   -1.9394    3.8769 H         1 ERL         0.1393
     52 H23         7.9992   -3.3661    7.5823 H         1 ERL         0.1678
@<TRIPOS>BOND
     1    1    2 1
     2    2    3 1
     3    3    4 1
     4    4    5 1
     5    5    6 1
     6    6   11 ar
     7    6    7 ar
     8    7    8 ar
     9    8   20 ar
    10    8    9 ar
    11    9   10 ar
    12   10   11 ar
    13   11   12 1
    14   12   13 1
    15   13   14 1
    16   14   15 1
    17   15   16 1
    18    9   17 ar
    19   17   18 ar
    20   18   19 ar
    21   19   20 ar
    22   20   21 1
    23   21   22 1
    24   22   27 ar
    25   22   23 ar
    26   23   24 ar
    27   24   25 ar
    28   25   26 ar
    29   26   27 ar
    30   26   28 1
    31   28   29 3
    32    1   30 1
    33    1   31 1
    34    1   32 1
    35    3   33 1
    36    3   34 1
    37    4   35 1
    38    4   36 1
    39    7   37 1
    40   10   38 1
    41   13   39 1
    42   13   40 1
    43   14   41 1
    44   14   42 1
    45   16   43 1
    46   16   44 1
    47   16   45 1
    48   18   46 1
    49   21   47 1
    50   23   48 1
    51   24   49 1
    52   25   50 1
    53   27   51 1
    54   29   52 1
