~{N}-[3-[3-cyclopropyl-5-(2-fluoro-4-iodo-anilino)-6,8-dimethyl-2,4,7-trioxo-pyrido[4,3-d]pyrimidin-1-yl]phenyl]acetamide
                    3D
 Structure written by MMmdl.
 60 64  0  0  1  0            999 V2000
   -1.9541    1.1186   -2.2946 C   0  0  0  0  0  0
   -1.3807    0.2350   -1.2137 C   0  0  0  0  0  0
   -0.4091    0.5494   -0.3235 C   0  0  0  0  0  0
    0.2449   -0.5267    0.4163 C   0  0  0  0  0  0
   -0.2245   -1.8054    0.4091 C   0  0  0  0  0  0
   -1.3572   -2.0859   -0.3753 N   0  0  0  0  0  0
   -1.9548   -1.1521   -1.2186 C   0  0  0  0  0  0
   -2.9192   -1.3995   -1.9457 O   0  0  0  0  0  0
   -1.9188   -3.4405   -0.3504 C   0  0  0  0  0  0
    0.3850   -2.8237    1.1145 N   0  0  0  0  0  0
    0.1322   -3.2267    2.4205 C   0  0  0  0  0  0
    0.8503   -4.2848    2.9777 C   0  0  0  0  0  0
    0.5948   -4.6873    4.2886 C   0  0  0  0  0  0
   -0.3788   -4.0316    5.0423 C   0  0  0  0  0  0
   -1.0968   -2.9735    4.4850 C   0  0  0  0  0  0
   -0.8413   -2.5711    3.1741 C   0  0  0  0  0  0
   -0.7596   -4.6312    6.9946 I   0  0  0  0  0  0
    1.7881   -4.9220    2.2623 F   0  0  0  0  0  0
    1.5119   -0.2121    1.1546 C   0  0  0  0  0  0
    1.9848   -0.9544    2.0134 O   0  0  0  0  0  0
    2.0964    1.0010    0.7952 N   0  0  0  0  0  0
    1.3612    2.1286    0.3859 C   0  0  0  0  0  0
    1.8223    3.2655    0.5456 O   0  0  0  0  0  0
    0.0557    1.8644   -0.1074 N   0  0  0  0  0  0
   -0.8216    3.0147   -0.2238 C   0  0  0  0  0  0
   -0.5401    4.0146   -1.1547 C   0  0  0  0  0  0
   -1.3823    5.1210   -1.2661 C   0  0  0  0  0  0
   -2.5059    5.2275   -0.4464 C   0  0  0  0  0  0
   -2.7873    4.2276    0.4846 C   0  0  0  0  0  0
   -1.9452    3.1212    0.5959 C   0  0  0  0  0  0
   -3.9116    4.3348    1.3038 N   0  0  0  0  0  0
   -4.3535    3.4405    2.2879 C   0  0  0  0  0  0
   -3.8302    2.3829    2.6237 O   0  0  0  0  0  0
   -5.6179    3.9220    2.9540 C   0  0  0  0  0  0
    3.4779    1.2231    1.2184 C   0  0  0  0  0  0
    4.4819    1.7036    0.2386 C   0  0  0  0  0  0
    4.5462    0.3004    0.7643 C   0  0  0  0  0  0
   -1.4935    2.1158   -2.2358 H   0  0  0  0  0  0
   -3.0417    1.2083   -2.1563 H   0  0  0  0  0  0
   -1.7451    0.6757   -3.2795 H   0  0  0  0  0  0
   -2.7943   -3.4867   -1.0148 H   0  0  0  0  0  0
   -2.2237   -3.6922    0.6761 H   0  0  0  0  0  0
   -1.1596   -4.1585   -0.6938 H   0  0  0  0  0  0
    1.1741   -3.4256    0.6402 H   0  0  0  0  0  0
    1.1658   -5.5141    4.7031 H   0  0  0  0  0  0
   -1.8598   -2.4490    5.0546 H   0  0  0  0  0  0
   -1.4067   -1.7453    2.7496 H   0  0  0  0  0  0
    0.3318    3.9422   -1.7997 H   0  0  0  0  0  0
   -1.1634    5.8993   -1.9913 H   0  0  0  0  0  0
   -3.1546    6.0946   -0.5420 H   0  0  0  0  0  0
   -2.1651    2.3405    1.3216 H   0  0  0  0  0  0
   -4.5754    5.2074    1.2153 H   0  0  0  0  0  0
   -5.9303    3.1941    3.7173 H   0  0  0  0  0  0
   -6.4123    4.0268    2.2004 H   0  0  0  0  0  0
   -5.4333    4.8963    3.4301 H   0  0  0  0  0  0
    3.1143    1.5728    2.1959 H   0  0  0  0  0  0
    3.9732    2.0097   -0.6874 H   0  0  0  0  0  0
    5.0239    2.5628    0.6604 H   0  0  0  0  0  0
    5.1425   -0.0244    1.6297 H   0  0  0  0  0  0
    4.0918   -0.5775    0.2819 H   0  0  0  0  0  0
  1  2  1  0  0  0
  1 38  1  0  0  0
  1 39  1  0  0  0
  1 40  1  0  0  0
  2  7  1  0  0  0
  2  3  2  0  0  0
  3 24  1  0  0  0
  3  4  1  0  0  0
  4  5  2  0  0  0
  4 19  1  0  0  0
  5  6  1  0  0  0
  5 10  1  0  0  0
  6  7  1  0  0  0
  6  9  1  0  0  0
  7  8  2  0  0  0
  9 41  1  0  0  0
  9 42  1  0  0  0
  9 43  1  0  0  0
 10 11  1  0  0  0
 10 44  1  0  0  0
 11 16  2  0  0  0
 11 12  1  0  0  0
 12 13  2  0  0  0
 12 18  1  0  0  0
 13 14  1  0  0  0
 13 45  1  0  0  0
 14 15  2  0  0  0
 14 17  1  0  0  0
 15 16  1  0  0  0
 15 46  1  0  0  0
 16 47  1  0  0  0
 19 20  2  0  0  0
 19 21  1  0  0  0
 21 22  1  0  0  0
 21 35  1  0  0  0
 22 23  2  0  0  0
 22 24  1  0  0  0
 24 25  1  0  0  0
 25 30  2  0  0  0
 25 26  1  0  0  0
 26 27  2  0  0  0
 26 48  1  0  0  0
 27 28  1  0  0  0
 27 49  1  0  0  0
 28 29  2  0  0  0
 28 50  1  0  0  0
 29 30  1  0  0  0
 29 31  1  0  0  0
 30 51  1  0  0  0
 31 32  1  0  0  0
 31 52  1  0  0  0
 32 33  2  0  0  0
 32 34  1  0  0  0
 34 53  1  0  0  0
 34 54  1  0  0  0
 34 55  1  0  0  0
 35 37  1  0  0  0
 35 36  1  0  0  0
 35 56  1  0  0  0
 36 37  1  0  0  0
 36 57  1  0  0  0
 36 58  1  0  0  0
 37 59  1  0  0  0
 37 60  1  0  0  0
M  END
> <s_m_source_file>
/Users/choderaj/github/choderalab/mcce-charges/mcce-charges.jchodera/epik_inhibitors/output/Trametinib/Trametinib-input.mol2

> <i_m_source_file_index>
1

> <r_lp_tautomer_probability>
1

> <r_epik_Ionization_Penalty>
  0.0000

> <r_epik_Ionization_Penalty_Charging>
  0.0000

> <r_epik_Ionization_Penalty_Neutral>
  0.0000

> <r_epik_State_Penalty>
 -0.0000

> <i_epik_Tot_Q>
0

> <s_epik_Chemistry_Notes>
This compound has an imine and may undergo hydrolysis.

$$$$
