@<TRIPOS>MOLECULE
~{N}-[3-[3-cyclopropyl-5-(2-fluoro-4-iodo-anilino)-6,8-dimethyl-2,4,7-trioxo-pyrido[4,3-d]pyrimidin-1-yl]phenyl]acetamide
   60    64     0     0     0
SMALL
USER_CHARGES

@<TRIPOS>ATOM
      1 C1         -1.9541    1.1186   -2.2946 C.3       1 <0>        -0.0329
      2 C2         -1.3807    0.2350   -1.2137 C.2       1 <0>        -0.2491
      3 C3         -0.4091    0.5494   -0.3235 C.2       1 <0>         0.1969
      4 C4          0.2449   -0.5267    0.4163 C.2       1 <0>        -0.3420
      5 C5         -0.2245   -1.8054    0.4091 C.2       1 <0>         0.3686
      6 N1         -1.3572   -2.0859   -0.3753 N.am      1 <0>        -0.3480
      7 C6         -1.9548   -1.1521   -1.2186 C.2       1 <0>         0.7014
      8 O1         -2.9192   -1.3995   -1.9457 O.2       1 <0>        -0.6200
      9 C7         -1.9188   -3.4405   -0.3504 C.3       1 <0>         0.0552
     10 N2          0.3850   -2.8237    1.1145 N.pl3     1 <0>        -0.6417
     11 C8          0.1322   -3.2267    2.4205 C.ar      1 <0>         0.1076
     12 C9          0.8503   -4.2848    2.9777 C.ar      1 <0>         0.1128
     13 C10         0.5948   -4.6873    4.2886 C.ar      1 <0>        -0.1175
     14 C11        -0.3788   -4.0316    5.0423 C.ar      1 <0>         0.0282
     15 C12        -1.0968   -2.9735    4.4850 C.ar      1 <0>        -0.0882
     16 C13        -0.8413   -2.5711    3.1741 C.ar      1 <0>        -0.1471
     17 I1         -0.7596   -4.6312    6.9946 I         1 <0>        -0.1187
     18 F1          1.7881   -4.9220    2.2623 F         1 <0>        -0.1236
     19 C14         1.5119   -0.2121    1.1546 C.2       1 <0>         0.7447
     20 O2          1.9848   -0.9544    2.0134 O.2       1 <0>        -0.6400
     21 N3          2.0964    1.0010    0.7952 N.am      1 <0>        -0.4640
     22 C15         1.3612    2.1286    0.3859 C.2       1 <0>         0.8241
     23 O3          1.8223    3.2655    0.5456 O.2       1 <0>        -0.6126
     24 N4          0.0557    1.8644   -0.1074 N.am      1 <0>        -0.3094
     25 C16        -0.8216    3.0147   -0.2238 C.ar      1 <0>         0.0715
     26 C17        -0.5401    4.0146   -1.1547 C.ar      1 <0>        -0.1539
     27 C18        -1.3823    5.1210   -1.2661 C.ar      1 <0>        -0.1010
     28 C19        -2.5059    5.2275   -0.4464 C.ar      1 <0>        -0.1458
     29 C20        -2.7873    4.2276    0.4846 C.ar      1 <0>         0.0798
     30 C21        -1.9452    3.1212    0.5959 C.ar      1 <0>        -0.1635
     31 N5         -3.9116    4.3348    1.3038 N.am      1 <0>        -0.4743
     32 C22        -4.3535    3.4405    2.2879 C.2       1 <0>         0.6674
     33 O4         -3.8302    2.3829    2.6237 O.2       1 <0>        -0.5892
     34 C23        -5.6179    3.9220    2.9540 C.3       1 <0>        -0.1755
     35 C24         3.4779    1.2231    1.2184 C.3       1 <0>         0.0326
     36 C25         4.4819    1.7036    0.2386 C.3       1 <0>        -0.1136
     37 C26         4.5462    0.3004    0.7643 C.3       1 <0>        -0.1136
     38 H1         -1.4935    2.1158   -2.2358 H         1 <0>         0.0542
     39 H2         -3.0417    1.2083   -2.1563 H         1 <0>         0.0542
     40 H3         -1.7451    0.6757   -3.2795 H         1 <0>         0.0542
     41 H4         -2.7943   -3.4867   -1.0148 H         1 <0>         0.0697
     42 H5         -2.2237   -3.6922    0.6761 H         1 <0>         0.0697
     43 H6         -1.1596   -4.1585   -0.6938 H         1 <0>         0.0697
     44 H7          1.1741   -3.4256    0.6402 H         1 <0>         0.4781
     45 H8          1.1658   -5.5141    4.7031 H         1 <0>         0.1658
     46 H9         -1.8598   -2.4490    5.0546 H         1 <0>         0.1546
     47 H10        -1.4067   -1.7453    2.7496 H         1 <0>         0.1512
     48 H11         0.3318    3.9422   -1.7997 H         1 <0>         0.1448
     49 H12        -1.1634    5.8993   -1.9913 H         1 <0>         0.1417
     50 H13        -3.1546    6.0946   -0.5420 H         1 <0>         0.1788
     51 H14        -2.1651    2.3405    1.3216 H         1 <0>         0.1468
     52 H15        -4.5754    5.2074    1.2153 H         1 <0>         0.3173
     53 H16        -5.9303    3.1941    3.7173 H         1 <0>         0.0699
     54 H17        -6.4123    4.0268    2.2004 H         1 <0>         0.0699
     55 H18        -5.4333    4.8963    3.4301 H         1 <0>         0.0699
     56 H19         3.1143    1.5728    2.1959 H         1 <0>         0.0921
     57 H20         3.9732    2.0097   -0.6874 H         1 <0>         0.0855
     58 H21         5.0239    2.5628    0.6604 H         1 <0>         0.0855
     59 H22         5.1425   -0.0244    1.6297 H         1 <0>         0.0855
     60 H23         4.0918   -0.5775    0.2819 H         1 <0>         0.0855
@<TRIPOS>BOND
     1    1    2 1
     2    1   38 1
     3    1   39 1
     4    1   40 1
     5    2    7 1
     6    2    3 2
     7    3   24 1
     8    3    4 1
     9    4    5 2
    10    4   19 1
    11    5    6 1
    12    5   10 1
    13    6    7 am
    14    6    9 1
    15    7    8 2
    16    9   41 1
    17    9   42 1
    18    9   43 1
    19   10   11 1
    20   10   44 1
    21   11   16 ar
    22   11   12 ar
    23   12   13 ar
    24   12   18 1
    25   13   14 ar
    26   13   45 1
    27   14   15 ar
    28   14   17 1
    29   15   16 ar
    30   15   46 1
    31   16   47 1
    32   19   20 2
    33   19   21 am
    34   21   22 am
    35   21   35 1
    36   22   23 2
    37   22   24 am
    38   24   25 1
    39   25   30 ar
    40   25   26 ar
    41   26   27 ar
    42   26   48 1
    43   27   28 ar
    44   27   49 1
    45   28   29 ar
    46   28   50 1
    47   29   30 ar
    48   29   31 1
    49   30   51 1
    50   31   32 am
    51   31   52 1
    52   32   33 2
    53   32   34 1
    54   34   53 1
    55   34   54 1
    56   34   55 1
    57   35   37 1
    58   35   36 1
    59   35   56 1
    60   36   37 1
    61   36   57 1
    62   36   58 1
    63   37   59 1
    64   37   60 1
@<TRIPOS>MOLECULE
(1~{Z})-~{N}-[3-[3-cyclopropyl-5-(2-fluoro-4-iodo-anilino)-6,8-dimethyl-2,4,7-trioxo-pyrido[4,3-d]pyrimidin-1-yl]phenyl]ethanimidic acid
   60    64     0     0     0
SMALL
USER_CHARGES

@<TRIPOS>ATOM
      1 C1         -1.9541    1.1186   -2.2946 C.3       1 <0>        -0.0364
      2 C2         -1.3807    0.2350   -1.2137 C.2       1 <0>        -0.2345
      3 C3         -0.4091    0.5494   -0.3235 C.2       1 <0>         0.1814
      4 C4          0.2449   -0.5267    0.4163 C.2       1 <0>        -0.3144
      5 C5         -0.2245   -1.8054    0.4091 C.2       1 <0>         0.3395
      6 N1         -1.3572   -2.0859   -0.3753 N.am      1 <0>        -0.3343
      7 C6         -1.9548   -1.1521   -1.2186 C.2       1 <0>         0.6955
      8 O1         -2.9192   -1.3995   -1.9457 O.2       1 <0>        -0.6169
      9 C7         -1.9188   -3.4405   -0.3504 C.3       1 <0>         0.0546
     10 N2          0.3850   -2.8237    1.1145 N.pl3     1 <0>        -0.6283
     11 C8          0.1322   -3.2267    2.4205 C.ar      1 <0>         0.1367
     12 C9          0.8503   -4.2848    2.9777 C.ar      1 <0>         0.0921
     13 C10         0.5948   -4.6873    4.2886 C.ar      1 <0>        -0.1038
     14 C11        -0.3788   -4.0316    5.0423 C.ar      1 <0>         0.0161
     15 C12        -1.0968   -2.9735    4.4850 C.ar      1 <0>        -0.0775
     16 C13        -0.8413   -2.5711    3.1741 C.ar      1 <0>        -0.1605
     17 I1         -0.7596   -4.6312    6.9946 I         1 <0>        -0.1281
     18 F1          1.7881   -4.9220    2.2623 F         1 <0>        -0.1333
     19 C14         1.5119   -0.2121    1.1546 C.2       1 <0>         0.7386
     20 O2          1.9848   -0.9544    2.0134 O.2       1 <0>        -0.6296
     21 N3          2.0964    1.0010    0.7952 N.am      1 <0>        -0.4680
     22 C15         1.3612    2.1286    0.3859 C.2       1 <0>         0.8257
     23 O3          1.8223    3.2655    0.5456 O.2       1 <0>        -0.6027
     24 N4          0.0557    1.8644   -0.1074 N.am      1 <0>        -0.3047
     25 C16        -0.8216    3.0147   -0.2238 C.ar      1 <0>         0.0497
     26 C17        -0.5401    4.0146   -1.1547 C.ar      1 <0>        -0.1404
     27 C18        -1.3823    5.1210   -1.2661 C.ar      1 <0>        -0.1146
     28 C19        -2.5059    5.2275   -0.4464 C.ar      1 <0>        -0.1273
     29 C20        -2.7873    4.2276    0.4846 C.ar      1 <0>         0.1692
     30 C21        -1.9452    3.1212    0.5959 C.ar      1 <0>        -0.1123
     31 N5         -3.9116    4.3348    1.3038 N.2       1 <0>        -0.6219
     32 C22        -4.3535    3.4405    2.2879 C.2       1 <0>         0.6267
     33 O4         -3.8302    2.3829    2.6237 O.3       1 <0>        -0.6179
     34 C23        -5.6179    3.9220    2.9540 C.3       1 <0>        -0.1653
     35 C24         3.4779    1.2231    1.2184 C.3       1 <0>         0.0448
     36 C25         4.4819    1.7036    0.2386 C.3       1 <0>        -0.1178
     37 C26         4.5462    0.3004    0.7643 C.3       1 <0>        -0.1178
     38 H1         -1.4935    2.1158   -2.2358 H         1 <0>         0.0576
     39 H2         -3.0417    1.2083   -2.1563 H         1 <0>         0.0576
     40 H3         -1.7451    0.6757   -3.2795 H         1 <0>         0.0576
     41 H4         -2.7943   -3.4867   -1.0148 H         1 <0>         0.0710
     42 H5         -2.2237   -3.6922    0.6761 H         1 <0>         0.0710
     43 H6         -1.1596   -4.1585   -0.6938 H         1 <0>         0.0710
     44 H7          1.1741   -3.4256    0.6402 H         1 <0>         0.4524
     45 H8          1.1658   -5.5141    4.7031 H         1 <0>         0.1630
     46 H9         -1.8598   -2.4490    5.0546 H         1 <0>         0.1512
     47 H10        -1.4067   -1.7453    2.7496 H         1 <0>         0.1462
     48 H11         0.3318    3.9422   -1.7997 H         1 <0>         0.1409
     49 H12        -1.1634    5.8993   -1.9913 H         1 <0>         0.1371
     50 H13        -3.1546    6.0946   -0.5420 H         1 <0>         0.1425
     51 H14        -2.1651    2.3405    1.3216 H         1 <0>         0.1598
     52 H15        -5.9303    3.1941    3.7173 H         1 <0>         0.0687
     53 H16        -6.4123    4.0268    2.2004 H         1 <0>         0.0687
     54 H17        -5.4333    4.8963    3.4301 H         1 <0>         0.0687
     55 H18         3.1143    1.5728    2.1959 H         1 <0>         0.1000
     56 H19         3.9732    2.0097   -0.6874 H         1 <0>         0.0821
     57 H20         5.0239    2.5628    0.6604 H         1 <0>         0.0821
     58 H21         5.1425   -0.0244    1.6297 H         1 <0>         0.0821
     59 H22         4.0918   -0.5775    0.2819 H         1 <0>         0.0821
     60 H23        -4.2850    1.7718    3.4172 H         1 <0>         0.4245
@<TRIPOS>BOND
     1    1    2 1
     2    1   38 1
     3    1   39 1
     4    1   40 1
     5    2    7 1
     6    2    3 2
     7    3   24 1
     8    3    4 1
     9    4    5 2
    10    4   19 1
    11    5    6 1
    12    5   10 1
    13    6    7 am
    14    6    9 1
    15    7    8 2
    16    9   41 1
    17    9   42 1
    18    9   43 1
    19   10   11 1
    20   10   44 1
    21   11   16 ar
    22   11   12 ar
    23   12   13 ar
    24   12   18 1
    25   13   14 ar
    26   13   45 1
    27   14   15 ar
    28   14   17 1
    29   15   16 ar
    30   15   46 1
    31   16   47 1
    32   19   20 2
    33   19   21 am
    34   21   22 am
    35   21   35 1
    36   22   23 2
    37   22   24 am
    38   24   25 1
    39   25   30 ar
    40   25   26 ar
    41   26   27 ar
    42   26   48 1
    43   27   28 ar
    44   27   49 1
    45   28   29 ar
    46   28   50 1
    47   29   30 ar
    48   29   31 1
    49   30   51 1
    50   31   32 2
    51   32   33 1
    52   32   34 1
    53   33   60 1
    54   34   52 1
    55   34   53 1
    56   34   54 1
    57   35   37 1
    58   35   36 1
    59   35   55 1
    60   36   37 1
    61   36   56 1
    62   36   57 1
    63   37   58 1
    64   37   59 1
