@<TRIPOS>MOLECULE
~{N}-[3-[3-cyclopropyl-5-(2-fluoro-4-iodo-anilino)-6,8-dimethyl-2,4,7-trioxo-pyrido[4,3-d]pyrimidin-1-yl]phenyl]acetamide
60   64    1
SMALL
USER_CHARGES


@<TRIPOS>ATOM
      1 C1         -1.9541    1.1186   -2.2946 C.3       1 TRA        -0.0343 
      2 C2         -1.3807    0.2350   -1.2137 C.ar      1 TRA        -0.2481 
      3 C3         -0.4091    0.5494   -0.3235 C.ar      1 TRA         0.1961 
      4 C4          0.2449   -0.5267    0.4163 C.ar      1 TRA        -0.3422 
      5 C5         -0.2245   -1.8054    0.4091 C.ar      1 TRA         0.3687 
      6 N1         -1.3572   -2.0859   -0.3753 N.pl3     1 TRA        -0.3463 
      7 C6         -1.9548   -1.1521   -1.2186 C.ar      1 TRA         0.7009 
      8 O1         -2.9192   -1.3995   -1.9457 O.2       1 TRA        -0.6216 
      9 C7         -1.9188   -3.4405   -0.3504 C.3       1 TRA         0.0548 
     10 N2          0.3850   -2.8237    1.1145 N.pl3     1 TRA        -0.6440 
     11 C8          0.1322   -3.2267    2.4205 C.ar      1 TRA         0.1117 
     12 C9          0.8503   -4.2848    2.9777 C.ar      1 TRA         0.1105 
     13 C10         0.5948   -4.6873    4.2886 C.ar      1 TRA        -0.1163 
     14 C11        -0.3788   -4.0316    5.0423 C.ar      1 TRA         0.0292 
     15 C12        -1.0968   -2.9735    4.4850 C.ar      1 TRA        -0.0881 
     16 C13        -0.8413   -2.5711    3.1741 C.ar      1 TRA        -0.1466 
     17 I1         -0.7596   -4.6312    6.9946 I         1 TRA        -0.1209 
     18 F1          1.7881   -4.9220    2.2623 F         1 TRA        -0.1260 
     19 C14         1.5119   -0.2121    1.1546 C.ar      1 TRA         0.7473 
     20 O2          1.9848   -0.9544    2.0134 O.2       1 TRA        -0.6402 
     21 N3          2.0964    1.0010    0.7952 N.pl3     1 TRA        -0.4675 
     22 C15         1.3612    2.1286    0.3859 C.ar      1 TRA         0.8295 
     23 O3          1.8223    3.2655    0.5456 O.2       1 TRA        -0.6099 
     24 N4          0.0557    1.8644   -0.1074 N.pl3     1 TRA        -0.3128 
     25 C16        -0.8216    3.0147   -0.2238 C.ar      1 TRA         0.0726 
     26 C17        -0.5401    4.0146   -1.1547 C.ar      1 TRA        -0.1547 
     27 C18        -1.3823    5.1210   -1.2661 C.ar      1 TRA        -0.0998 
     28 C19        -2.5059    5.2275   -0.4464 C.ar      1 TRA        -0.1496 
     29 C20        -2.7873    4.2276    0.4846 C.ar      1 TRA         0.0798 
     30 C21        -1.9452    3.1212    0.5959 C.ar      1 TRA        -0.1652 
     31 N5         -3.9116    4.3348    1.3038 N.am      1 TRA        -0.4748 
     32 C22        -4.3535    3.4405    2.2879 C.2       1 TRA         0.6683 
     33 O4         -3.8302    2.3829    2.6237 O.2       1 TRA        -0.5879 
     34 C23        -5.6179    3.9220    2.9540 C.3       1 TRA        -0.1766 
     35 C24         3.4779    1.2231    1.2184 C.3       1 TRA         0.0329 
     36 C25         4.4819    1.7036    0.2386 C.3       1 TRA        -0.1126 
     37 C26         4.5462    0.3004    0.7643 C.3       1 TRA        -0.1126 
     38 H1         -1.4935    2.1158   -2.2358 H         1 TRA         0.0545 
     39 H2         -3.0417    1.2083   -2.1563 H         1 TRA         0.0545 
     40 H3         -1.7451    0.6757   -3.2795 H         1 TRA         0.0545 
     41 H4         -2.7943   -3.4867   -1.0148 H         1 TRA         0.0703 
     42 H5         -2.2237   -3.6922    0.6761 H         1 TRA         0.0703 
     43 H6         -1.1596   -4.1585   -0.6938 H         1 TRA         0.0703 
     44 H7          1.1741   -3.4256    0.6402 H         1 TRA         0.4763 
     45 H8          1.1658   -5.5141    4.7031 H         1 TRA         0.1660 
     46 H9         -1.8598   -2.4490    5.0546 H         1 TRA         0.1549 
     47 H10        -1.4067   -1.7453    2.7496 H         1 TRA         0.1524 
     48 H11         0.3318    3.9422   -1.7997 H         1 TRA         0.1442 
     49 H12        -1.1634    5.8993   -1.9913 H         1 TRA         0.1416 
     50 H13        -3.1546    6.0946   -0.5420 H         1 TRA         0.1787 
     51 H14        -2.1651    2.3405    1.3216 H         1 TRA         0.1508 
     52 H15        -4.5754    5.2074    1.2153 H         1 TRA         0.3180 
     53 H16        -5.9303    3.1941    3.7173 H         1 TRA         0.0696 
     54 H17        -6.4123    4.0268    2.2004 H         1 TRA         0.0696 
     55 H18        -5.4333    4.8963    3.4301 H         1 TRA         0.0696 
     56 H19         3.1143    1.5728    2.1959 H         1 TRA         0.0910 
     57 H20         3.9732    2.0097   -0.6874 H         1 TRA         0.0848 
     58 H21         5.0239    2.5628    0.6604 H         1 TRA         0.0848 
     59 H22         5.1425   -0.0244    1.6297 H         1 TRA         0.0848 
     60 H23         4.0918   -0.5775    0.2819 H         1 TRA         0.0848 
@<TRIPOS>BOND
     1    1    2 1    
     2    1   38 1    
     3    1   39 1    
     4    1   40 1    
     5    2    7 ar   
     6    2    3 ar   
     7    3   24 ar   
     8    3    4 ar   
     9    4    5 ar   
    10    4   19 ar   
    11    5    6 ar   
    12    5   10 1    
    13    6    7 ar   
    14    6    9 1    
    15    7    8 2    
    16    9   41 1    
    17    9   42 1    
    18    9   43 1    
    19   10   11 1    
    20   10   44 1    
    21   11   16 ar   
    22   11   12 ar   
    23   12   13 ar   
    24   12   18 1    
    25   13   14 ar   
    26   13   45 1    
    27   14   15 ar   
    28   14   17 1    
    29   15   16 ar   
    30   15   46 1    
    31   16   47 1    
    32   19   20 2    
    33   19   21 ar   
    34   21   22 ar   
    35   21   35 1    
    36   22   23 2    
    37   22   24 ar   
    38   24   25 1    
    39   25   30 ar   
    40   25   26 ar   
    41   26   27 ar   
    42   26   48 1    
    43   27   28 ar   
    44   27   49 1    
    45   28   29 ar   
    46   28   50 1    
    47   29   30 ar   
    48   29   31 1    
    49   30   51 1    
    50   31   32 am   BACKBONE|DICT|INTERRES
    51   31   52 1    
    52   32   33 2    
    53   32   34 1    
    54   34   53 1    
    55   34   54 1    
    56   34   55 1    
    57   35   37 1    
    58   35   36 1    
    59   35   56 1    
    60   36   37 1    
    61   36   57 1    
    62   36   58 1    
    63   37   59 1    
    64   37   60 1    
@<TRIPOS>SUBSTRUCTURE
     1 TRA         1 GROUP             0       ****    0 ROOT    
@<TRIPOS>MOLECULE
~{N}-[3-[3-cyclopropyl-5-(2-fluoro-4-iodo-anilino)-6,8-dimethyl-2,4,7-trioxo-pyrido[4,3-d]pyrimidin-1-yl]phenyl]acetamide
60   64    1
SMALL
USER_CHARGES


@<TRIPOS>ATOM
      1 C1         -1.9541    1.1186   -2.2946 C.3       1 TRA        -0.0343 
      2 C2         -1.3807    0.2350   -1.2137 C.ar      1 TRA        -0.2481 
      3 C3         -0.4091    0.5494   -0.3235 C.ar      1 TRA         0.1961 
      4 C4          0.2449   -0.5267    0.4163 C.ar      1 TRA        -0.3422 
      5 C5         -0.2245   -1.8054    0.4091 C.ar      1 TRA         0.3687 
      6 N1         -1.3572   -2.0859   -0.3753 N.pl3     1 TRA        -0.3463 
      7 C6         -1.9548   -1.1521   -1.2186 C.ar      1 TRA         0.7009 
      8 O1         -2.9192   -1.3995   -1.9457 O.2       1 TRA        -0.6216 
      9 C7         -1.9188   -3.4405   -0.3504 C.3       1 TRA         0.0548 
     10 N2          0.3850   -2.8237    1.1145 N.pl3     1 TRA        -0.6440 
     11 C8          0.1322   -3.2267    2.4205 C.ar      1 TRA         0.1117 
     12 C9          0.8503   -4.2848    2.9777 C.ar      1 TRA         0.1105 
     13 C10         0.5948   -4.6873    4.2886 C.ar      1 TRA        -0.1163 
     14 C11        -0.3788   -4.0316    5.0423 C.ar      1 TRA         0.0292 
     15 C12        -1.0968   -2.9735    4.4850 C.ar      1 TRA        -0.0881 
     16 C13        -0.8413   -2.5711    3.1741 C.ar      1 TRA        -0.1466 
     17 I1         -0.7596   -4.6312    6.9946 I         1 TRA        -0.1209 
     18 F1          1.7881   -4.9220    2.2623 F         1 TRA        -0.1260 
     19 C14         1.5119   -0.2121    1.1546 C.ar      1 TRA         0.7473 
     20 O2          1.9848   -0.9544    2.0134 O.2       1 TRA        -0.6402 
     21 N3          2.0964    1.0010    0.7952 N.pl3     1 TRA        -0.4675 
     22 C15         1.3612    2.1286    0.3859 C.ar      1 TRA         0.8295 
     23 O3          1.8223    3.2655    0.5456 O.2       1 TRA        -0.6099 
     24 N4          0.0557    1.8644   -0.1074 N.pl3     1 TRA        -0.3128 
     25 C16        -0.8216    3.0147   -0.2238 C.ar      1 TRA         0.0726 
     26 C17        -0.5401    4.0146   -1.1547 C.ar      1 TRA        -0.1547 
     27 C18        -1.3823    5.1210   -1.2661 C.ar      1 TRA        -0.0998 
     28 C19        -2.5059    5.2275   -0.4464 C.ar      1 TRA        -0.1496 
     29 C20        -2.7873    4.2276    0.4846 C.ar      1 TRA         0.0798 
     30 C21        -1.9452    3.1212    0.5959 C.ar      1 TRA        -0.1652 
     31 N5         -3.9116    4.3348    1.3038 N.2       1 TRA        -0.4748 
     32 C22        -4.3535    3.4405    2.2879 C.2       1 TRA         0.6683 
     33 O4         -3.8302    2.3829    2.6237 O.3       1 TRA        -0.5879 
     34 C23        -5.6179    3.9220    2.9540 C.3       1 TRA        -0.1766 
     35 C24         3.4779    1.2231    1.2184 C.3       1 TRA         0.0329 
     36 C25         4.4819    1.7036    0.2386 C.3       1 TRA        -0.1126 
     37 C26         4.5462    0.3004    0.7643 C.3       1 TRA        -0.1126 
     38 H1         -1.4935    2.1158   -2.2358 H         1 TRA         0.0545 
     39 H2         -3.0417    1.2083   -2.1563 H         1 TRA         0.0545 
     40 H3         -1.7451    0.6757   -3.2795 H         1 TRA         0.0545 
     41 H4         -2.7943   -3.4867   -1.0148 H         1 TRA         0.0703 
     42 H5         -2.2237   -3.6922    0.6761 H         1 TRA         0.0703 
     43 H6         -1.1596   -4.1585   -0.6938 H         1 TRA         0.0703 
     44 H7          1.1741   -3.4256    0.6402 H         1 TRA         0.4763 
     45 H8          1.1658   -5.5141    4.7031 H         1 TRA         0.1660 
     46 H9         -1.8598   -2.4490    5.0546 H         1 TRA         0.1549 
     47 H10        -1.4067   -1.7453    2.7496 H         1 TRA         0.1524 
     48 H11         0.3318    3.9422   -1.7997 H         1 TRA         0.1442 
     49 H12        -1.1634    5.8993   -1.9913 H         1 TRA         0.1416 
     50 H13        -3.1546    6.0946   -0.5420 H         1 TRA         0.1787 
     51 H14        -2.1651    2.3405    1.3216 H         1 TRA         0.1508 
     52 H16        -5.9303    3.1941    3.7173 H         1 TRA         0.0696 
     53 H17        -6.4123    4.0268    2.2004 H         1 TRA         0.0696 
     54 H18        -5.4333    4.8963    3.4301 H         1 TRA         0.0696 
     55 H19         3.1143    1.5728    2.1959 H         1 TRA         0.0910 
     56 H20         3.9732    2.0097   -0.6874 H         1 TRA         0.0848 
     57 H21         5.0239    2.5628    0.6604 H         1 TRA         0.0848 
     58 H22         5.1425   -0.0244    1.6297 H         1 TRA         0.0848 
     59 H23         4.0918   -0.5775    0.2819 H         1 TRA         0.0848 
     60 H60        -4.2850    1.7718    3.4172 H         1 TRA         0.0000 
@<TRIPOS>BOND
     1    1    2 1    
     2    1   38 1    
     3    1   39 1    
     4    1   40 1    
     5    2    7 ar   
     6    2    3 ar   
     7    3   24 ar   
     8    3    4 ar   
     9    4    5 ar   
    10    4   19 ar   
    11    5    6 ar   
    12    5   10 1    
    13    6    7 ar   
    14    6    9 1    
    15    7    8 2    
    16    9   41 1    
    17    9   42 1    
    18    9   43 1    
    19   10   11 1    
    20   10   44 1    
    21   11   16 ar   
    22   11   12 ar   
    23   12   13 ar   
    24   12   18 1    
    25   13   14 ar   
    26   13   45 1    
    27   14   15 ar   
    28   14   17 1    
    29   15   16 ar   
    30   15   46 1    
    31   16   47 1    
    32   19   20 2    
    33   19   21 ar   
    34   21   22 ar   
    35   21   35 1    
    36   22   23 2    
    37   22   24 ar   
    38   24   25 1    
    39   25   30 ar   
    40   25   26 ar   
    41   26   27 ar   
    42   26   48 1    
    43   27   28 ar   
    44   27   49 1    
    45   28   29 ar   
    46   28   50 1    
    47   29   30 ar   
    48   29   31 1    
    49   30   51 1    
    50   31   32 2    
    51   32   33 1    
    52   32   34 1    
    53   33   60 1    
    54   34   52 1    
    55   34   53 1    
    56   34   54 1    
    57   35   37 1    
    58   35   36 1    
    59   35   55 1    
    60   36   37 1    
    61   36   56 1    
    62   36   57 1    
    63   37   58 1    
    64   37   59 1    
@<TRIPOS>SUBSTRUCTURE
     1 TRA         1 GROUP             0       ****    0 ROOT    
@<TRIPOS>MOLECULE
~{N}-[3-[3-cyclopropyl-5-(2-fluoro-4-iodo-anilino)-6,8-dimethyl-2,4,7-trioxo-pyrido[4,3-d]pyrimidin-1-yl]phenyl]acetamide
59   63    1
SMALL
USER_CHARGES


@<TRIPOS>ATOM
      1 C1         -1.9541    1.1186   -2.2946 C.3       1 TRA        -0.0343 
      2 C2         -1.3807    0.2350   -1.2137 C.ar      1 TRA        -0.2481 
      3 C3         -0.4091    0.5494   -0.3235 C.ar      1 TRA         0.1961 
      4 C4          0.2449   -0.5267    0.4163 C.ar      1 TRA        -0.3422 
      5 C5         -0.2245   -1.8054    0.4091 C.ar      1 TRA         0.3687 
      6 N1         -1.3572   -2.0859   -0.3753 N.pl3     1 TRA        -0.3463 
      7 C6         -1.9548   -1.1521   -1.2186 C.ar      1 TRA         0.7009 
      8 O1         -2.9192   -1.3995   -1.9457 O.co2     1 TRA        -0.6216 
      9 C7         -1.9188   -3.4405   -0.3504 C.3       1 TRA         0.0548 
     10 N2          0.3850   -2.8237    1.1145 N.2       1 TRA        -0.6440 
     11 C8          0.1322   -3.2267    2.4205 C.ar      1 TRA         0.1117 
     12 C9          0.8503   -4.2848    2.9777 C.ar      1 TRA         0.1105 
     13 C10         0.5948   -4.6873    4.2886 C.ar      1 TRA        -0.1163 
     14 C11        -0.3788   -4.0316    5.0423 C.ar      1 TRA         0.0292 
     15 C12        -1.0968   -2.9735    4.4850 C.ar      1 TRA        -0.0881 
     16 C13        -0.8413   -2.5711    3.1741 C.ar      1 TRA        -0.1466 
     17 I1         -0.7596   -4.6312    6.9946 I         1 TRA        -0.1209 
     18 F1          1.7881   -4.9220    2.2623 F         1 TRA        -0.1260 
     19 C14         1.5119   -0.2121    1.1546 C.ar      1 TRA         0.7473 
     20 O2          1.9848   -0.9544    2.0134 O.2       1 TRA        -0.6402 
     21 N3          2.0964    1.0010    0.7952 N.pl3     1 TRA        -0.4675 
     22 C15         1.3612    2.1286    0.3859 C.ar      1 TRA         0.8295 
     23 O3          1.8223    3.2655    0.5456 O.2       1 TRA        -0.6099 
     24 N4          0.0557    1.8644   -0.1074 N.pl3     1 TRA        -0.3128 
     25 C16        -0.8216    3.0147   -0.2238 C.ar      1 TRA         0.0726 
     26 C17        -0.5401    4.0146   -1.1547 C.ar      1 TRA        -0.1547 
     27 C18        -1.3823    5.1210   -1.2661 C.ar      1 TRA        -0.0998 
     28 C19        -2.5059    5.2275   -0.4464 C.ar      1 TRA        -0.1496 
     29 C20        -2.7873    4.2276    0.4846 C.ar      1 TRA         0.0798 
     30 C21        -1.9452    3.1212    0.5959 C.ar      1 TRA        -0.1652 
     31 N5         -3.9116    4.3348    1.3038 N.am      1 TRA        -0.4748 
     32 C22        -4.3535    3.4405    2.2879 C.2       1 TRA         0.6683 
     33 O4         -3.8302    2.3829    2.6237 O.2       1 TRA        -0.5879 
     34 C23        -5.6179    3.9220    2.9540 C.3       1 TRA        -0.1766 
     35 C24         3.4779    1.2231    1.2184 C.3       1 TRA         0.0329 
     36 C25         4.4819    1.7036    0.2386 C.3       1 TRA        -0.1126 
     37 C26         4.5462    0.3004    0.7643 C.3       1 TRA        -0.1126 
     38 H1         -1.4935    2.1158   -2.2358 H         1 TRA         0.0545 
     39 H2         -3.0417    1.2083   -2.1563 H         1 TRA         0.0545 
     40 H3         -1.7451    0.6757   -3.2795 H         1 TRA         0.0545 
     41 H4         -2.7943   -3.4867   -1.0148 H         1 TRA         0.0703 
     42 H5         -2.2237   -3.6922    0.6761 H         1 TRA         0.0703 
     43 H6         -1.1596   -4.1585   -0.6938 H         1 TRA         0.0703 
     44 H8          1.1658   -5.5141    4.7031 H         1 TRA         0.1660 
     45 H9         -1.8598   -2.4490    5.0546 H         1 TRA         0.1549 
     46 H10        -1.4067   -1.7453    2.7496 H         1 TRA         0.1524 
     47 H11         0.3318    3.9422   -1.7997 H         1 TRA         0.1442 
     48 H12        -1.1634    5.8993   -1.9913 H         1 TRA         0.1416 
     49 H13        -3.1546    6.0946   -0.5420 H         1 TRA         0.1787 
     50 H14        -2.1651    2.3405    1.3216 H         1 TRA         0.1508 
     51 H15        -4.5754    5.2074    1.2153 H         1 TRA         0.3180 
     52 H16        -5.9303    3.1941    3.7173 H         1 TRA         0.0696 
     53 H17        -6.4123    4.0268    2.2004 H         1 TRA         0.0696 
     54 H18        -5.4333    4.8963    3.4301 H         1 TRA         0.0696 
     55 H19         3.1143    1.5728    2.1959 H         1 TRA         0.0910 
     56 H20         3.9732    2.0097   -0.6874 H         1 TRA         0.0848 
     57 H21         5.0239    2.5628    0.6604 H         1 TRA         0.0848 
     58 H22         5.1425   -0.0244    1.6297 H         1 TRA         0.0848 
     59 H23         4.0918   -0.5775    0.2819 H         1 TRA         0.0848 
@<TRIPOS>BOND
     1    1    2 1    
     2    1   38 1    
     3    1   39 1    
     4    1   40 1    
     5    2    7 ar   
     6    2    3 ar   
     7    3   24 ar   
     8    3    4 ar   
     9    4    5 ar   
    10    4   19 ar   
    11    5    6 ar   
    12    5   10 2    
    13    6    7 ar   
    14    6    9 1    
    15    7    8 1    
    16    9   41 1    
    17    9   42 1    
    18    9   43 1    
    19   10   11 1    
    20   11   16 ar   
    21   11   12 ar   
    22   12   13 ar   
    23   12   18 1    
    24   13   14 ar   
    25   13   44 1    
    26   14   15 ar   
    27   14   17 1    
    28   15   16 ar   
    29   15   45 1    
    30   16   46 1    
    31   19   20 2    
    32   19   21 ar   
    33   21   22 ar   
    34   21   35 1    
    35   22   23 2    
    36   22   24 ar   
    37   24   25 1    
    38   25   30 ar   
    39   25   26 ar   
    40   26   27 ar   
    41   26   47 1    
    42   27   28 ar   
    43   27   48 1    
    44   28   29 ar   
    45   28   49 1    
    46   29   30 ar   
    47   29   31 1    
    48   30   50 1    
    49   31   32 am   BACKBONE|DICT|INTERRES
    50   31   51 1    
    51   32   33 2    
    52   32   34 1    
    53   34   52 1    
    54   34   53 1    
    55   34   54 1    
    56   35   37 1    
    57   35   36 1    
    58   35   55 1    
    59   36   37 1    
    60   36   56 1    
    61   36   57 1    
    62   37   58 1    
    63   37   59 1    
@<TRIPOS>SUBSTRUCTURE
     1 TRA         1 GROUP             0       ****    0 ROOT    
@<TRIPOS>MOLECULE
~{N}-[3-[3-cyclopropyl-5-(2-fluoro-4-iodo-anilino)-6,8-dimethyl-2,4,7-trioxo-pyrido[4,3-d]pyrimidin-1-yl]phenyl]acetamide
60   64    1
SMALL
USER_CHARGES


@<TRIPOS>ATOM
      1 C1         -1.9541    1.1186   -2.2946 C.3       1 TRA        -0.0343 
      2 C2         -1.3807    0.2350   -1.2137 C.ar      1 TRA        -0.2481 
      3 C3         -0.4091    0.5494   -0.3235 C.ar      1 TRA         0.1961 
      4 C4          0.2449   -0.5267    0.4163 C.ar      1 TRA        -0.3422 
      5 C5         -0.2245   -1.8054    0.4091 C.ar      1 TRA         0.3687 
      6 N1         -1.3572   -2.0859   -0.3753 N.pl3     1 TRA        -0.3463 
      7 C6         -1.9548   -1.1521   -1.2186 C.ar      1 TRA         0.7009 
      8 O1         -2.9192   -1.3995   -1.9457 O.2       1 TRA        -0.6216 
      9 C7         -1.9188   -3.4405   -0.3504 C.3       1 TRA         0.0548 
     10 N2          0.3850   -2.8237    1.1145 N.pl3     1 TRA        -0.6440 
     11 C8          0.1322   -3.2267    2.4205 C.ar      1 TRA         0.1117 
     12 C9          0.8503   -4.2848    2.9777 C.ar      1 TRA         0.1105 
     13 C10         0.5948   -4.6873    4.2886 C.ar      1 TRA        -0.1163 
     14 C11        -0.3788   -4.0316    5.0423 C.ar      1 TRA         0.0292 
     15 C12        -1.0968   -2.9735    4.4850 C.ar      1 TRA        -0.0881 
     16 C13        -0.8413   -2.5711    3.1741 C.ar      1 TRA        -0.1466 
     17 I1         -0.7596   -4.6312    6.9946 I         1 TRA        -0.1209 
     18 F1          1.7881   -4.9220    2.2623 F         1 TRA        -0.1260 
     19 C14         1.5119   -0.2121    1.1546 C.ar      1 TRA         0.7473 
     20 O2          1.9848   -0.9544    2.0134 O.2       1 TRA        -0.6402 
     21 N3          2.0964    1.0010    0.7952 N.pl3     1 TRA        -0.4675 
     22 C15         1.3612    2.1286    0.3859 C.ar      1 TRA         0.8295 
     23 O3          1.8223    3.2655    0.5456 O.2       1 TRA        -0.6099 
     24 N4          0.0557    1.8644   -0.1074 N.pl3     1 TRA        -0.3128 
     25 C16        -0.8216    3.0147   -0.2238 C.ar      1 TRA         0.0726 
     26 C17        -0.5401    4.0146   -1.1547 C.ar      1 TRA        -0.1547 
     27 C18        -1.3823    5.1210   -1.2661 C.ar      1 TRA        -0.0998 
     28 C19        -2.5059    5.2275   -0.4464 C.ar      1 TRA        -0.1496 
     29 C20        -2.7873    4.2276    0.4846 C.ar      1 TRA         0.0798 
     30 C21        -1.9452    3.1212    0.5959 C.ar      1 TRA        -0.1652 
     31 N5         -3.9116    4.3348    1.3038 N.2       1 TRA        -0.4748 
     32 C22        -4.3535    3.4405    2.2879 C.2       1 TRA         0.6683 
     33 O4         -3.8302    2.3829    2.6237 O.2       1 TRA        -0.5879 
     34 C23        -5.6179    3.9220    2.9540 C.3       1 TRA        -0.1766 
     35 C24         3.4779    1.2231    1.2184 C.3       1 TRA         0.0329 
     36 C25         4.4819    1.7036    0.2386 C.3       1 TRA        -0.1126 
     37 C26         4.5462    0.3004    0.7643 C.3       1 TRA        -0.1126 
     38 H1         -1.4935    2.1158   -2.2358 H         1 TRA         0.0545 
     39 H2         -3.0417    1.2083   -2.1563 H         1 TRA         0.0545 
     40 H3         -1.7451    0.6757   -3.2795 H         1 TRA         0.0545 
     41 H4         -2.7943   -3.4867   -1.0148 H         1 TRA         0.0703 
     42 H5         -2.2237   -3.6922    0.6761 H         1 TRA         0.0703 
     43 H6         -1.1596   -4.1585   -0.6938 H         1 TRA         0.0703 
     44 H7          1.1741   -3.4256    0.6402 H         1 TRA         0.4763 
     45 H8          1.1658   -5.5141    4.7031 H         1 TRA         0.1660 
     46 H9         -1.8598   -2.4490    5.0546 H         1 TRA         0.1549 
     47 H10        -1.4067   -1.7453    2.7496 H         1 TRA         0.1524 
     48 H11         0.3318    3.9422   -1.7997 H         1 TRA         0.1442 
     49 H12        -1.1634    5.8993   -1.9913 H         1 TRA         0.1416 
     50 H13        -3.1546    6.0946   -0.5420 H         1 TRA         0.1787 
     51 H14        -2.1651    2.3405    1.3216 H         1 TRA         0.1508 
     52 H16        -5.9303    3.1941    3.7173 H         1 TRA         0.0696 
     53 H17        -6.4123    4.0268    2.2004 H         1 TRA         0.0696 
     54 H18        -5.4333    4.8963    3.4301 H         1 TRA         0.0696 
     55 H19         3.1143    1.5728    2.1959 H         1 TRA         0.0910 
     56 H20         3.9732    2.0097   -0.6874 H         1 TRA         0.0848 
     57 H21         5.0239    2.5628    0.6604 H         1 TRA         0.0848 
     58 H22         5.1425   -0.0244    1.6297 H         1 TRA         0.0848 
     59 H23         4.0918   -0.5775    0.2819 H         1 TRA         0.0848 
     60 H60        -4.2850    1.7718    3.4172 H         1 TRA         0.0000 
@<TRIPOS>BOND
     1    1    2 1    
     2    1   38 1    
     3    1   39 1    
     4    1   40 1    
     5    2    7 ar   
     6    2    3 ar   
     7    3   24 ar   
     8    3    4 ar   
     9    4    5 ar   
    10    4   19 ar   
    11    5    6 ar   
    12    5   10 1    
    13    6    7 ar   
    14    6    9 1    
    15    7    8 2    
    16    9   41 1    
    17    9   42 1    
    18    9   43 1    
    19   10   11 1    
    20   10   44 1    
    21   11   16 ar   
    22   11   12 ar   
    23   12   13 ar   
    24   12   18 1    
    25   13   14 ar   
    26   13   45 1    
    27   14   15 ar   
    28   14   17 1    
    29   15   16 ar   
    30   15   46 1    
    31   16   47 1    
    32   19   20 2    
    33   19   21 ar   
    34   21   22 ar   
    35   21   35 1    
    36   22   23 2    
    37   22   24 ar   
    38   24   25 1    
    39   25   30 ar   
    40   25   26 ar   
    41   26   27 ar   
    42   26   48 1    
    43   27   28 ar   
    44   27   49 1    
    45   28   29 ar   
    46   28   50 1    
    47   29   30 ar   
    48   29   31 1    
    49   30   51 1    
    50   31   32 1    
    51   32   33 2    
    52   32   34 1    
    53   33   60 1    
    54   34   52 1    
    55   34   53 1    
    56   34   54 1    
    57   35   37 1    
    58   35   36 1    
    59   35   55 1    
    60   36   37 1    
    61   36   56 1    
    62   36   57 1    
    63   37   58 1    
    64   37   59 1    
@<TRIPOS>SUBSTRUCTURE
     1 TRA         1 GROUP             0       ****    0 ROOT    
@<TRIPOS>MOLECULE
~{N}-[3-[3-cyclopropyl-5-(2-fluoro-4-iodo-anilino)-6,8-dimethyl-2,4,7-trioxo-pyrido[4,3-d]pyrimidin-1-yl]phenyl]acetamide
59   63    1
SMALL
USER_CHARGES


@<TRIPOS>ATOM
      1 C1         -1.9541    1.1186   -2.2946 C.3       1 TRA        -0.0343 
      2 C2         -1.3807    0.2350   -1.2137 C.ar      1 TRA        -0.2481 
      3 C3         -0.4091    0.5494   -0.3235 C.ar      1 TRA         0.1961 
      4 C4          0.2449   -0.5267    0.4163 C.ar      1 TRA        -0.3422 
      5 C5         -0.2245   -1.8054    0.4091 C.ar      1 TRA         0.3687 
      6 N1         -1.3572   -2.0859   -0.3753 N.pl3     1 TRA        -0.3463 
      7 C6         -1.9548   -1.1521   -1.2186 C.ar      1 TRA         0.7009 
      8 O1         -2.9192   -1.3995   -1.9457 O.2       1 TRA        -0.6216 
      9 C7         -1.9188   -3.4405   -0.3504 C.3       1 TRA         0.0548 
     10 N2          0.3850   -2.8237    1.1145 N.pl3     1 TRA        -0.6440 
     11 C8          0.1322   -3.2267    2.4205 C.ar      1 TRA         0.1117 
     12 C9          0.8503   -4.2848    2.9777 C.ar      1 TRA         0.1105 
     13 C10         0.5948   -4.6873    4.2886 C.ar      1 TRA        -0.1163 
     14 C11        -0.3788   -4.0316    5.0423 C.ar      1 TRA         0.0292 
     15 C12        -1.0968   -2.9735    4.4850 C.ar      1 TRA        -0.0881 
     16 C13        -0.8413   -2.5711    3.1741 C.ar      1 TRA        -0.1466 
     17 I1         -0.7596   -4.6312    6.9946 I         1 TRA        -0.1209 
     18 F1          1.7881   -4.9220    2.2623 F         1 TRA        -0.1260 
     19 C14         1.5119   -0.2121    1.1546 C.ar      1 TRA         0.7473 
     20 O2          1.9848   -0.9544    2.0134 O.2       1 TRA        -0.6402 
     21 N3          2.0964    1.0010    0.7952 N.pl3     1 TRA        -0.4675 
     22 C15         1.3612    2.1286    0.3859 C.ar      1 TRA         0.8295 
     23 O3          1.8223    3.2655    0.5456 O.2       1 TRA        -0.6099 
     24 N4          0.0557    1.8644   -0.1074 N.pl3     1 TRA        -0.3128 
     25 C16        -0.8216    3.0147   -0.2238 C.ar      1 TRA         0.0726 
     26 C17        -0.5401    4.0146   -1.1547 C.ar      1 TRA        -0.1547 
     27 C18        -1.3823    5.1210   -1.2661 C.ar      1 TRA        -0.0998 
     28 C19        -2.5059    5.2275   -0.4464 C.ar      1 TRA        -0.1496 
     29 C20        -2.7873    4.2276    0.4846 C.ar      1 TRA         0.0798 
     30 C21        -1.9452    3.1212    0.5959 C.ar      1 TRA        -0.1652 
     31 N5         -3.9116    4.3348    1.3038 N.2       1 TRA        -0.4748 
     32 C22        -4.3535    3.4405    2.2879 C.2       1 TRA         0.6683 
     33 O4         -3.8302    2.3829    2.6237 O.co2     1 TRA        -0.5879 
     34 C23        -5.6179    3.9220    2.9540 C.3       1 TRA        -0.1766 
     35 C24         3.4779    1.2231    1.2184 C.3       1 TRA         0.0329 
     36 C25         4.4819    1.7036    0.2386 C.3       1 TRA        -0.1126 
     37 C26         4.5462    0.3004    0.7643 C.3       1 TRA        -0.1126 
     38 H1         -1.4935    2.1158   -2.2358 H         1 TRA         0.0545 
     39 H2         -3.0417    1.2083   -2.1563 H         1 TRA         0.0545 
     40 H3         -1.7451    0.6757   -3.2795 H         1 TRA         0.0545 
     41 H4         -2.7943   -3.4867   -1.0148 H         1 TRA         0.0703 
     42 H5         -2.2237   -3.6922    0.6761 H         1 TRA         0.0703 
     43 H6         -1.1596   -4.1585   -0.6938 H         1 TRA         0.0703 
     44 H7          1.1741   -3.4256    0.6402 H         1 TRA         0.4763 
     45 H8          1.1658   -5.5141    4.7031 H         1 TRA         0.1660 
     46 H9         -1.8598   -2.4490    5.0546 H         1 TRA         0.1549 
     47 H10        -1.4067   -1.7453    2.7496 H         1 TRA         0.1524 
     48 H11         0.3318    3.9422   -1.7997 H         1 TRA         0.1442 
     49 H12        -1.1634    5.8993   -1.9913 H         1 TRA         0.1416 
     50 H13        -3.1546    6.0946   -0.5420 H         1 TRA         0.1787 
     51 H14        -2.1651    2.3405    1.3216 H         1 TRA         0.1508 
     52 H16        -5.9303    3.1941    3.7173 H         1 TRA         0.0696 
     53 H17        -6.4123    4.0268    2.2004 H         1 TRA         0.0696 
     54 H18        -5.4333    4.8963    3.4301 H         1 TRA         0.0696 
     55 H19         3.1143    1.5728    2.1959 H         1 TRA         0.0910 
     56 H20         3.9732    2.0097   -0.6874 H         1 TRA         0.0848 
     57 H21         5.0239    2.5628    0.6604 H         1 TRA         0.0848 
     58 H22         5.1425   -0.0244    1.6297 H         1 TRA         0.0848 
     59 H23         4.0918   -0.5775    0.2819 H         1 TRA         0.0848 
@<TRIPOS>BOND
     1    1    2 1    
     2    1   38 1    
     3    1   39 1    
     4    1   40 1    
     5    2    7 ar   
     6    2    3 ar   
     7    3   24 ar   
     8    3    4 ar   
     9    4    5 ar   
    10    4   19 ar   
    11    5    6 ar   
    12    5   10 1    
    13    6    7 ar   
    14    6    9 1    
    15    7    8 2    
    16    9   41 1    
    17    9   42 1    
    18    9   43 1    
    19   10   11 1    
    20   10   44 1    
    21   11   16 ar   
    22   11   12 ar   
    23   12   13 ar   
    24   12   18 1    
    25   13   14 ar   
    26   13   45 1    
    27   14   15 ar   
    28   14   17 1    
    29   15   16 ar   
    30   15   46 1    
    31   16   47 1    
    32   19   20 2    
    33   19   21 ar   
    34   21   22 ar   
    35   21   35 1    
    36   22   23 2    
    37   22   24 ar   
    38   24   25 1    
    39   25   30 ar   
    40   25   26 ar   
    41   26   27 ar   
    42   26   48 1    
    43   27   28 ar   
    44   27   49 1    
    45   28   29 ar   
    46   28   50 1    
    47   29   30 ar   
    48   29   31 1    
    49   30   51 1    
    50   31   32 2    
    51   32   33 1    
    52   32   34 1    
    53   34   52 1    
    54   34   53 1    
    55   34   54 1    
    56   35   37 1    
    57   35   36 1    
    58   35   55 1    
    59   36   37 1    
    60   36   56 1    
    61   36   57 1    
    62   37   58 1    
    63   37   59 1    
@<TRIPOS>SUBSTRUCTURE
     1 TRA         1 GROUP             0       ****    0 ROOT    
@<TRIPOS>MOLECULE
~{N}-[3-[3-cyclopropyl-5-(2-fluoro-4-iodo-anilino)-6,8-dimethyl-2,4,7-trioxo-pyrido[4,3-d]pyrimidin-1-yl]phenyl]acetamide
61   65    1
SMALL
USER_CHARGES


@<TRIPOS>ATOM
      1 C1         -1.9541    1.1186   -2.2946 C.3       1 TRA        -0.0343 
      2 C2         -1.3807    0.2350   -1.2137 C.ar      1 TRA        -0.2481 
      3 C3         -0.4091    0.5494   -0.3235 C.ar      1 TRA         0.1961 
      4 C4          0.2449   -0.5267    0.4163 C.ar      1 TRA        -0.3422 
      5 C5         -0.2245   -1.8054    0.4091 C.ar      1 TRA         0.3687 
      6 N1         -1.3572   -2.0859   -0.3753 N.pl3     1 TRA        -0.3463 
      7 C6         -1.9548   -1.1521   -1.2186 C.ar      1 TRA         0.7009 
      8 O1         -2.9192   -1.3995   -1.9457 O.2       1 TRA        -0.6216 
      9 C7         -1.9188   -3.4405   -0.3504 C.3       1 TRA         0.0548 
     10 N2          0.3850   -2.8237    1.1145 N.pl3     1 TRA        -0.6440 
     11 C8          0.1322   -3.2267    2.4205 C.ar      1 TRA         0.1117 
     12 C9          0.8503   -4.2848    2.9777 C.ar      1 TRA         0.1105 
     13 C10         0.5948   -4.6873    4.2886 C.ar      1 TRA        -0.1163 
     14 C11        -0.3788   -4.0316    5.0423 C.ar      1 TRA         0.0292 
     15 C12        -1.0968   -2.9735    4.4850 C.ar      1 TRA        -0.0881 
     16 C13        -0.8413   -2.5711    3.1741 C.ar      1 TRA        -0.1466 
     17 I1         -0.7596   -4.6312    6.9946 I         1 TRA        -0.1209 
     18 F1          1.7881   -4.9220    2.2623 F         1 TRA        -0.1260 
     19 C14         1.5119   -0.2121    1.1546 C.ar      1 TRA         0.7473 
     20 O2          1.9848   -0.9544    2.0134 O.2       1 TRA        -0.6402 
     21 N3          2.0964    1.0010    0.7952 N.pl3     1 TRA        -0.4675 
     22 C15         1.3612    2.1286    0.3859 C.ar      1 TRA         0.8295 
     23 O3          1.8223    3.2655    0.5456 O.2       1 TRA        -0.6099 
     24 N4          0.0557    1.8644   -0.1074 N.pl3     1 TRA        -0.3128 
     25 C16        -0.8216    3.0147   -0.2238 C.ar      1 TRA         0.0726 
     26 C17        -0.5401    4.0146   -1.1547 C.ar      1 TRA        -0.1547 
     27 C18        -1.3823    5.1210   -1.2661 C.ar      1 TRA        -0.0998 
     28 C19        -2.5059    5.2275   -0.4464 C.ar      1 TRA        -0.1496 
     29 C20        -2.7873    4.2276    0.4846 C.ar      1 TRA         0.0798 
     30 C21        -1.9452    3.1212    0.5959 C.ar      1 TRA        -0.1652 
     31 N5         -3.9116    4.3348    1.3038 N.pl3     1 TRA        -0.4748 
     32 C22        -4.3535    3.4405    2.2879 C.cat     1 TRA         0.6683 
     33 O4         -3.8302    2.3829    2.6237 O.3       1 TRA        -0.5879 
     34 C23        -5.6179    3.9220    2.9540 C.3       1 TRA        -0.1766 
     35 C24         3.4779    1.2231    1.2184 C.3       1 TRA         0.0329 
     36 C25         4.4819    1.7036    0.2386 C.3       1 TRA        -0.1126 
     37 C26         4.5462    0.3004    0.7643 C.3       1 TRA        -0.1126 
     38 H1         -1.4935    2.1158   -2.2358 H         1 TRA         0.0545 
     39 H2         -3.0417    1.2083   -2.1563 H         1 TRA         0.0545 
     40 H3         -1.7451    0.6757   -3.2795 H         1 TRA         0.0545 
     41 H4         -2.7943   -3.4867   -1.0148 H         1 TRA         0.0703 
     42 H5         -2.2237   -3.6922    0.6761 H         1 TRA         0.0703 
     43 H6         -1.1596   -4.1585   -0.6938 H         1 TRA         0.0703 
     44 H7          1.1741   -3.4256    0.6402 H         1 TRA         0.4763 
     45 H8          1.1658   -5.5141    4.7031 H         1 TRA         0.1660 
     46 H9         -1.8598   -2.4490    5.0546 H         1 TRA         0.1549 
     47 H10        -1.4067   -1.7453    2.7496 H         1 TRA         0.1524 
     48 H11         0.3318    3.9422   -1.7997 H         1 TRA         0.1442 
     49 H12        -1.1634    5.8993   -1.9913 H         1 TRA         0.1416 
     50 H13        -3.1546    6.0946   -0.5420 H         1 TRA         0.1787 
     51 H14        -2.1651    2.3405    1.3216 H         1 TRA         0.1508 
     52 H16        -5.9303    3.1941    3.7173 H         1 TRA         0.0696 
     53 H17        -6.4123    4.0268    2.2004 H         1 TRA         0.0696 
     54 H18        -5.4333    4.8963    3.4301 H         1 TRA         0.0696 
     55 H19         3.1143    1.5728    2.1959 H         1 TRA         0.0910 
     56 H20         3.9732    2.0097   -0.6874 H         1 TRA         0.0848 
     57 H21         5.0239    2.5628    0.6604 H         1 TRA         0.0848 
     58 H22         5.1425   -0.0244    1.6297 H         1 TRA         0.0848 
     59 H23         4.0918   -0.5775    0.2819 H         1 TRA         0.0848 
     60 H60        -4.2850    1.7718    3.4172 H         1 TRA         0.0000 
     61 H61        -4.4782    5.2561    1.1035 H         1 TRA         0.0000 
@<TRIPOS>BOND
     1    1    2 1    
     2    1   38 1    
     3    1   39 1    
     4    1   40 1    
     5    2    7 ar   
     6    2    3 ar   
     7    3   24 ar   
     8    3    4 ar   
     9    4    5 ar   
    10    4   19 ar   
    11    5    6 ar   
    12    5   10 1    
    13    6    7 ar   
    14    6    9 1    
    15    7    8 2    
    16    9   41 1    
    17    9   42 1    
    18    9   43 1    
    19   10   11 1    
    20   10   44 1    
    21   11   16 ar   
    22   11   12 ar   
    23   12   13 ar   
    24   12   18 1    
    25   13   14 ar   
    26   13   45 1    
    27   14   15 ar   
    28   14   17 1    
    29   15   16 ar   
    30   15   46 1    
    31   16   47 1    
    32   19   20 2    
    33   19   21 ar   
    34   21   22 ar   
    35   21   35 1    
    36   22   23 2    
    37   22   24 ar   
    38   24   25 1    
    39   25   30 ar   
    40   25   26 ar   
    41   26   27 ar   
    42   26   48 1    
    43   27   28 ar   
    44   27   49 1    
    45   28   29 ar   
    46   28   50 1    
    47   29   30 ar   
    48   29   31 1    
    49   30   51 1    
    50   31   32 ar   
    51   31   61 1    
    52   32   33 1    
    53   32   34 1    
    54   33   60 1    
    55   34   52 1    
    56   34   53 1    
    57   34   54 1    
    58   35   37 1    
    59   35   36 1    
    60   35   55 1    
    61   36   37 1    
    62   36   56 1    
    63   36   57 1    
    64   37   58 1    
    65   37   59 1    
@<TRIPOS>SUBSTRUCTURE
     1 TRA         1 GROUP             0       ****    0 ROOT    
@<TRIPOS>MOLECULE
~{N}-[3-[3-cyclopropyl-5-(2-fluoro-4-iodo-anilino)-6,8-dimethyl-2,4,7-trioxo-pyrido[4,3-d]pyrimidin-1-yl]phenyl]acetamide
61   65    1
SMALL
USER_CHARGES


@<TRIPOS>ATOM
      1 C1         -1.9541    1.1186   -2.2946 C.3       1 TRA        -0.0343 
      2 C2         -1.3807    0.2350   -1.2137 C.ar      1 TRA        -0.2481 
      3 C3         -0.4091    0.5494   -0.3235 C.ar      1 TRA         0.1961 
      4 C4          0.2449   -0.5267    0.4163 C.ar      1 TRA        -0.3422 
      5 C5         -0.2245   -1.8054    0.4091 C.ar      1 TRA         0.3687 
      6 N1         -1.3572   -2.0859   -0.3753 N.pl3     1 TRA        -0.3463 
      7 C6         -1.9548   -1.1521   -1.2186 C.ar      1 TRA         0.7009 
      8 O1         -2.9192   -1.3995   -1.9457 O.3       1 TRA        -0.6216 
      9 C7         -1.9188   -3.4405   -0.3504 C.3       1 TRA         0.0548 
     10 N2          0.3850   -2.8237    1.1145 N.pl3     1 TRA        -0.6440 
     11 C8          0.1322   -3.2267    2.4205 C.ar      1 TRA         0.1117 
     12 C9          0.8503   -4.2848    2.9777 C.ar      1 TRA         0.1105 
     13 C10         0.5948   -4.6873    4.2886 C.ar      1 TRA        -0.1163 
     14 C11        -0.3788   -4.0316    5.0423 C.ar      1 TRA         0.0292 
     15 C12        -1.0968   -2.9735    4.4850 C.ar      1 TRA        -0.0881 
     16 C13        -0.8413   -2.5711    3.1741 C.ar      1 TRA        -0.1466 
     17 I1         -0.7596   -4.6312    6.9946 I         1 TRA        -0.1209 
     18 F1          1.7881   -4.9220    2.2623 F         1 TRA        -0.1260 
     19 C14         1.5119   -0.2121    1.1546 C.ar      1 TRA         0.7473 
     20 O2          1.9848   -0.9544    2.0134 O.2       1 TRA        -0.6402 
     21 N3          2.0964    1.0010    0.7952 N.pl3     1 TRA        -0.4675 
     22 C15         1.3612    2.1286    0.3859 C.ar      1 TRA         0.8295 
     23 O3          1.8223    3.2655    0.5456 O.2       1 TRA        -0.6099 
     24 N4          0.0557    1.8644   -0.1074 N.pl3     1 TRA        -0.3128 
     25 C16        -0.8216    3.0147   -0.2238 C.ar      1 TRA         0.0726 
     26 C17        -0.5401    4.0146   -1.1547 C.ar      1 TRA        -0.1547 
     27 C18        -1.3823    5.1210   -1.2661 C.ar      1 TRA        -0.0998 
     28 C19        -2.5059    5.2275   -0.4464 C.ar      1 TRA        -0.1496 
     29 C20        -2.7873    4.2276    0.4846 C.ar      1 TRA         0.0798 
     30 C21        -1.9452    3.1212    0.5959 C.ar      1 TRA        -0.1652 
     31 N5         -3.9116    4.3348    1.3038 N.am      1 TRA        -0.4748 
     32 C22        -4.3535    3.4405    2.2879 C.2       1 TRA         0.6683 
     33 O4         -3.8302    2.3829    2.6237 O.2       1 TRA        -0.5879 
     34 C23        -5.6179    3.9220    2.9540 C.3       1 TRA        -0.1766 
     35 C24         3.4779    1.2231    1.2184 C.3       1 TRA         0.0329 
     36 C25         4.4819    1.7036    0.2386 C.3       1 TRA        -0.1126 
     37 C26         4.5462    0.3004    0.7643 C.3       1 TRA        -0.1126 
     38 H1         -1.4935    2.1158   -2.2358 H         1 TRA         0.0545 
     39 H2         -3.0417    1.2083   -2.1563 H         1 TRA         0.0545 
     40 H3         -1.7451    0.6757   -3.2795 H         1 TRA         0.0545 
     41 H4         -2.7943   -3.4867   -1.0148 H         1 TRA         0.0703 
     42 H5         -2.2237   -3.6922    0.6761 H         1 TRA         0.0703 
     43 H6         -1.1596   -4.1585   -0.6938 H         1 TRA         0.0703 
     44 H7          1.1741   -3.4256    0.6402 H         1 TRA         0.4763 
     45 H8          1.1658   -5.5141    4.7031 H         1 TRA         0.1660 
     46 H9         -1.8598   -2.4490    5.0546 H         1 TRA         0.1549 
     47 H10        -1.4067   -1.7453    2.7496 H         1 TRA         0.1524 
     48 H11         0.3318    3.9422   -1.7997 H         1 TRA         0.1442 
     49 H12        -1.1634    5.8993   -1.9913 H         1 TRA         0.1416 
     50 H13        -3.1546    6.0946   -0.5420 H         1 TRA         0.1787 
     51 H14        -2.1651    2.3405    1.3216 H         1 TRA         0.1508 
     52 H15        -4.5754    5.2074    1.2153 H         1 TRA         0.3180 
     53 H16        -5.9303    3.1941    3.7173 H         1 TRA         0.0696 
     54 H17        -6.4123    4.0268    2.2004 H         1 TRA         0.0696 
     55 H18        -5.4333    4.8963    3.4301 H         1 TRA         0.0696 
     56 H19         3.1143    1.5728    2.1959 H         1 TRA         0.0910 
     57 H20         3.9732    2.0097   -0.6874 H         1 TRA         0.0848 
     58 H21         5.0239    2.5628    0.6604 H         1 TRA         0.0848 
     59 H22         5.1425   -0.0244    1.6297 H         1 TRA         0.0848 
     60 H23         4.0918   -0.5775    0.2819 H         1 TRA         0.0848 
     61 H61        -3.3515   -2.4109   -1.9608 H         1 TRA         0.0000 
@<TRIPOS>BOND
     1    1    2 1    
     2    1   38 1    
     3    1   39 1    
     4    1   40 1    
     5    2    7 ar   
     6    2    3 ar   
     7    3   24 ar   
     8    3    4 ar   
     9    4    5 ar   
    10    4   19 ar   
    11    5    6 ar   
    12    5   10 1    
    13    6    7 ar   
    14    6    9 1    
    15    7    8 1    
    16    8   61 1    
    17    9   41 1    
    18    9   42 1    
    19    9   43 1    
    20   10   11 1    
    21   10   44 1    
    22   11   16 ar   
    23   11   12 ar   
    24   12   13 ar   
    25   12   18 1    
    26   13   14 ar   
    27   13   45 1    
    28   14   15 ar   
    29   14   17 1    
    30   15   16 ar   
    31   15   46 1    
    32   16   47 1    
    33   19   20 2    
    34   19   21 ar   
    35   21   22 ar   
    36   21   35 1    
    37   22   23 2    
    38   22   24 ar   
    39   24   25 1    
    40   25   30 ar   
    41   25   26 ar   
    42   26   27 ar   
    43   26   48 1    
    44   27   28 ar   
    45   27   49 1    
    46   28   29 ar   
    47   28   50 1    
    48   29   30 ar   
    49   29   31 1    
    50   30   51 1    
    51   31   32 am   BACKBONE|DICT|INTERRES
    52   31   52 1    
    53   32   33 2    
    54   32   34 1    
    55   34   53 1    
    56   34   54 1    
    57   34   55 1    
    58   35   37 1    
    59   35   36 1    
    60   35   56 1    
    61   36   37 1    
    62   36   57 1    
    63   36   58 1    
    64   37   59 1    
    65   37   60 1    
@<TRIPOS>SUBSTRUCTURE
     1 TRA         1 GROUP             0       ****    0 ROOT    
@<TRIPOS>MOLECULE
~{N}-[3-[3-cyclopropyl-5-(2-fluoro-4-iodo-anilino)-6,8-dimethyl-2,4,7-trioxo-pyrido[4,3-d]pyrimidin-1-yl]phenyl]acetamide
59   63    1
SMALL
USER_CHARGES


@<TRIPOS>ATOM
      1 C1         -1.9541    1.1186   -2.2946 C.3       1 TRA        -0.0343 
      2 C2         -1.3807    0.2350   -1.2137 C.ar      1 TRA        -0.2481 
      3 C3         -0.4091    0.5494   -0.3235 C.ar      1 TRA         0.1961 
      4 C4          0.2449   -0.5267    0.4163 C.ar      1 TRA        -0.3422 
      5 C5         -0.2245   -1.8054    0.4091 C.ar      1 TRA         0.3687 
      6 N1         -1.3572   -2.0859   -0.3753 N.pl3     1 TRA        -0.3463 
      7 C6         -1.9548   -1.1521   -1.2186 C.ar      1 TRA         0.7009 
      8 O1         -2.9192   -1.3995   -1.9457 O.co2     1 TRA        -0.6216 
      9 C7         -1.9188   -3.4405   -0.3504 C.3       1 TRA         0.0548 
     10 N2          0.3850   -2.8237    1.1145 N.2       1 TRA        -0.6440 
     11 C8          0.1322   -3.2267    2.4205 C.ar      1 TRA         0.1117 
     12 C9          0.8503   -4.2848    2.9777 C.ar      1 TRA         0.1105 
     13 C10         0.5948   -4.6873    4.2886 C.ar      1 TRA        -0.1163 
     14 C11        -0.3788   -4.0316    5.0423 C.ar      1 TRA         0.0292 
     15 C12        -1.0968   -2.9735    4.4850 C.ar      1 TRA        -0.0881 
     16 C13        -0.8413   -2.5711    3.1741 C.ar      1 TRA        -0.1466 
     17 I1         -0.7596   -4.6312    6.9946 I         1 TRA        -0.1209 
     18 F1          1.7881   -4.9220    2.2623 F         1 TRA        -0.1260 
     19 C14         1.5119   -0.2121    1.1546 C.ar      1 TRA         0.7473 
     20 O2          1.9848   -0.9544    2.0134 O.2       1 TRA        -0.6402 
     21 N3          2.0964    1.0010    0.7952 N.pl3     1 TRA        -0.4675 
     22 C15         1.3612    2.1286    0.3859 C.ar      1 TRA         0.8295 
     23 O3          1.8223    3.2655    0.5456 O.2       1 TRA        -0.6099 
     24 N4          0.0557    1.8644   -0.1074 N.pl3     1 TRA        -0.3128 
     25 C16        -0.8216    3.0147   -0.2238 C.ar      1 TRA         0.0726 
     26 C17        -0.5401    4.0146   -1.1547 C.ar      1 TRA        -0.1547 
     27 C18        -1.3823    5.1210   -1.2661 C.ar      1 TRA        -0.0998 
     28 C19        -2.5059    5.2275   -0.4464 C.ar      1 TRA        -0.1496 
     29 C20        -2.7873    4.2276    0.4846 C.ar      1 TRA         0.0798 
     30 C21        -1.9452    3.1212    0.5959 C.ar      1 TRA        -0.1652 
     31 N5         -3.9116    4.3348    1.3038 N.2       1 TRA        -0.4748 
     32 C22        -4.3535    3.4405    2.2879 C.2       1 TRA         0.6683 
     33 O4         -3.8302    2.3829    2.6237 O.3       1 TRA        -0.5879 
     34 C23        -5.6179    3.9220    2.9540 C.3       1 TRA        -0.1766 
     35 C24         3.4779    1.2231    1.2184 C.3       1 TRA         0.0329 
     36 C25         4.4819    1.7036    0.2386 C.3       1 TRA        -0.1126 
     37 C26         4.5462    0.3004    0.7643 C.3       1 TRA        -0.1126 
     38 H1         -1.4935    2.1158   -2.2358 H         1 TRA         0.0545 
     39 H2         -3.0417    1.2083   -2.1563 H         1 TRA         0.0545 
     40 H3         -1.7451    0.6757   -3.2795 H         1 TRA         0.0545 
     41 H4         -2.7943   -3.4867   -1.0148 H         1 TRA         0.0703 
     42 H5         -2.2237   -3.6922    0.6761 H         1 TRA         0.0703 
     43 H6         -1.1596   -4.1585   -0.6938 H         1 TRA         0.0703 
     44 H8          1.1658   -5.5141    4.7031 H         1 TRA         0.1660 
     45 H9         -1.8598   -2.4490    5.0546 H         1 TRA         0.1549 
     46 H10        -1.4067   -1.7453    2.7496 H         1 TRA         0.1524 
     47 H11         0.3318    3.9422   -1.7997 H         1 TRA         0.1442 
     48 H12        -1.1634    5.8993   -1.9913 H         1 TRA         0.1416 
     49 H13        -3.1546    6.0946   -0.5420 H         1 TRA         0.1787 
     50 H14        -2.1651    2.3405    1.3216 H         1 TRA         0.1508 
     51 H16        -5.9303    3.1941    3.7173 H         1 TRA         0.0696 
     52 H17        -6.4123    4.0268    2.2004 H         1 TRA         0.0696 
     53 H18        -5.4333    4.8963    3.4301 H         1 TRA         0.0696 
     54 H19         3.1143    1.5728    2.1959 H         1 TRA         0.0910 
     55 H20         3.9732    2.0097   -0.6874 H         1 TRA         0.0848 
     56 H21         5.0239    2.5628    0.6604 H         1 TRA         0.0848 
     57 H22         5.1425   -0.0244    1.6297 H         1 TRA         0.0848 
     58 H23         4.0918   -0.5775    0.2819 H         1 TRA         0.0848 
     59 H59        -4.2850    1.7718    3.4172 H         1 TRA         0.0000 
@<TRIPOS>BOND
     1    1    2 1    
     2    1   38 1    
     3    1   39 1    
     4    1   40 1    
     5    2    7 ar   
     6    2    3 ar   
     7    3   24 ar   
     8    3    4 ar   
     9    4    5 ar   
    10    4   19 ar   
    11    5    6 ar   
    12    5   10 2    
    13    6    7 ar   
    14    6    9 1    
    15    7    8 1    
    16    9   41 1    
    17    9   42 1    
    18    9   43 1    
    19   10   11 1    
    20   11   16 ar   
    21   11   12 ar   
    22   12   13 ar   
    23   12   18 1    
    24   13   14 ar   
    25   13   44 1    
    26   14   15 ar   
    27   14   17 1    
    28   15   16 ar   
    29   15   45 1    
    30   16   46 1    
    31   19   20 2    
    32   19   21 ar   
    33   21   22 ar   
    34   21   35 1    
    35   22   23 2    
    36   22   24 ar   
    37   24   25 1    
    38   25   30 ar   
    39   25   26 ar   
    40   26   27 ar   
    41   26   47 1    
    42   27   28 ar   
    43   27   48 1    
    44   28   29 ar   
    45   28   49 1    
    46   29   30 ar   
    47   29   31 1    
    48   30   50 1    
    49   31   32 2    
    50   32   33 1    
    51   32   34 1    
    52   33   59 1    
    53   34   51 1    
    54   34   52 1    
    55   34   53 1    
    56   35   37 1    
    57   35   36 1    
    58   35   54 1    
    59   36   37 1    
    60   36   55 1    
    61   36   56 1    
    62   37   57 1    
    63   37   58 1    
@<TRIPOS>SUBSTRUCTURE
     1 TRA         1 GROUP             0       ****    0 ROOT    
