@<TRIPOS>MOLECULE
~{N}-[3-[3-cyclopropyl-5-(2-fluoro-4-iodo-anilino)-6,8-dimethyl-2,4,7-trioxo-pyrido[4,3-d]pyrimidin-1-yl]phenyl]acetamide
   60    64     0     0     0
SMALL
USER_CHARGES

@<TRIPOS>ATOM
      1 C1         -1.9541    1.1186   -2.2946 C.3       1 TRA        -0.0343
      2 C2         -1.3807    0.2350   -1.2137 C.2       1 TRA        -0.2481
      3 C3         -0.4091    0.5494   -0.3235 C.2       1 TRA         0.1961
      4 C4          0.2449   -0.5267    0.4163 C.2       1 TRA        -0.3422
      5 C5         -0.2245   -1.8054    0.4091 C.2       1 TRA         0.3687
      6 N1         -1.3572   -2.0859   -0.3753 N.am      1 TRA        -0.3463
      7 C6         -1.9548   -1.1521   -1.2186 C.2       1 TRA         0.7009
      8 O1         -2.9192   -1.3995   -1.9457 O.2       1 TRA        -0.6216
      9 C7         -1.9188   -3.4405   -0.3504 C.3       1 TRA         0.0548
     10 N2          0.3850   -2.8237    1.1145 N.pl3     1 TRA        -0.6440
     11 C8          0.1322   -3.2267    2.4205 C.ar      1 TRA         0.1120
     12 C9          0.8503   -4.2848    2.9777 C.ar      1 TRA         0.1105
     13 C10         0.5948   -4.6873    4.2886 C.ar      1 TRA        -0.1163
     14 C11        -0.3788   -4.0316    5.0423 C.ar      1 TRA         0.0290
     15 C12        -1.0968   -2.9735    4.4850 C.ar      1 TRA        -0.0881
     16 C13        -0.8413   -2.5711    3.1741 C.ar      1 TRA        -0.1466
     17 I1         -0.7596   -4.6312    6.9946 I         1 TRA        -0.1209
     18 F1          1.7881   -4.9220    2.2623 F         1 TRA        -0.1260
     19 C14         1.5119   -0.2121    1.1546 C.2       1 TRA         0.7473
     20 O2          1.9848   -0.9544    2.0134 O.2       1 TRA        -0.6402
     21 N3          2.0964    1.0010    0.7952 N.am      1 TRA        -0.4675
     22 C15         1.3612    2.1286    0.3859 C.2       1 TRA         0.8295
     23 O3          1.8223    3.2655    0.5456 O.2       1 TRA        -0.6099
     24 N4          0.0557    1.8644   -0.1074 N.am      1 TRA        -0.3128
     25 C16        -0.8216    3.0147   -0.2238 C.ar      1 TRA         0.0726
     26 C17        -0.5401    4.0146   -1.1547 C.ar      1 TRA        -0.1547
     27 C18        -1.3823    5.1210   -1.2661 C.ar      1 TRA        -0.0998
     28 C19        -2.5059    5.2275   -0.4464 C.ar      1 TRA        -0.1496
     29 C20        -2.7873    4.2276    0.4846 C.ar      1 TRA         0.0798
     30 C21        -1.9452    3.1212    0.5959 C.ar      1 TRA        -0.1652
     31 N5         -3.9116    4.3348    1.3038 N.am      1 TRA        -0.4748
     32 C22        -4.3535    3.4405    2.2879 C.2       1 TRA         0.6683
     33 O4         -3.8302    2.3829    2.6237 O.2       1 TRA        -0.5879
     34 C23        -5.6179    3.9220    2.9540 C.3       1 TRA        -0.1766
     35 C24         3.4779    1.2231    1.2184 C.3       1 TRA         0.0329
     36 C25         4.4819    1.7036    0.2386 C.3       1 TRA        -0.1126
     37 C26         4.5462    0.3004    0.7643 C.3       1 TRA        -0.1126
     38 H1         -2.8383    1.6447   -1.9252 H         1 TRA         0.0545
     39 H2         -2.2392    0.5193   -3.1638 H         1 TRA         0.0545
     40 H3         -1.2134    1.8568   -2.6140 H         1 TRA         0.0545
     41 H4         -2.6595   -3.4937    0.4384 H         1 TRA         0.0703
     42 H5         -1.1185   -4.1460   -0.1613 H         1 TRA         0.0703
     43 H6         -2.3779   -3.6450   -1.3102 H         1 TRA         0.0703
     44 H7          1.0899   -3.3128    0.5950 H         1 TRA         0.4763
     45 H8          1.1658   -5.5141    4.7031 H         1 TRA         0.1660
     46 H9         -1.8598   -2.4490    5.0546 H         1 TRA         0.1549
     47 H10        -1.4067   -1.7453    2.7496 H         1 TRA         0.1524
     48 H11         0.3318    3.9422   -1.7997 H         1 TRA         0.1442
     49 H12        -1.1634    5.8993   -1.9913 H         1 TRA         0.1416
     50 H13        -3.1546    6.0946   -0.5420 H         1 TRA         0.1787
     51 H14        -2.1651    2.3405    1.3216 H         1 TRA         0.1508
     52 H15        -4.4915    5.1720    1.1746 H         1 TRA         0.3180
     53 H16        -6.4892    3.5421    2.4129 H         1 TRA         0.0696
     54 H17        -5.6462    5.0154    2.9480 H         1 TRA         0.0696
     55 H18        -5.6498    3.5736    3.9905 H         1 TRA         0.0696
     56 H19         3.4982    1.5994    2.2193 H         1 TRA         0.0910
     57 H20         4.2024    1.8388   -0.7991 H         1 TRA         0.0848
     58 H21         5.2147    2.4132    0.6025 H         1 TRA         0.0848
     59 H22         4.3085   -0.5048    0.0800 H         1 TRA         0.0848
     60 H23         5.3217    0.0649    1.4828 H         1 TRA         0.0848
@<TRIPOS>BOND
     1    1    2 1
     2    2    7 1
     3    2    3 2
     4    3   24 1
     5    3    4 1
     6    4    5 2
     7    5    6 1
     8    6    7 am
     9    7    8 2
    10    6    9 1
    11    5   10 1
    12   10   11 1
    13   11   16 ar
    14   11   12 ar
    15   12   13 ar
    16   13   14 ar
    17   14   15 ar
    18   15   16 ar
    19   14   17 1
    20   12   18 1
    21    4   19 1
    22   19   20 2
    23   19   21 am
    24   21   22 am
    25   22   23 2
    26   22   24 am
    27   24   25 1
    28   25   30 ar
    29   25   26 ar
    30   26   27 ar
    31   27   28 ar
    32   28   29 ar
    33   29   30 ar
    34   29   31 1
    35   31   32 am
    36   32   33 2
    37   32   34 1
    38   21   35 1
    39   35   37 1
    40   35   36 1
    41   36   37 1
    42    1   38 1
    43    1   39 1
    44    1   40 1
    45    9   41 1
    46    9   42 1
    47    9   43 1
    48   10   44 1
    49   13   45 1
    50   15   46 1
    51   16   47 1
    52   26   48 1
    53   27   49 1
    54   28   50 1
    55   30   51 1
    56   31   52 1
    57   34   53 1
    58   34   54 1
    59   34   55 1
    60   35   56 1
    61   36   57 1
    62   36   58 1
    63   37   59 1
    64   37   60 1
