@<TRIPOS>MOLECULE
diethyl-[2-[[5-[(~{Z})-(5-fluoro-2-oxo-indolin-3-ylidene)methyl]-2,4-dimethyl-1~{H}-pyrrole-3-carbonyl]amino]ethyl]ammonium
   57    59     0     0     0
SMALL
USER_CHARGES

@<TRIPOS>ATOM
      1 C1          9.2912  -10.4666   -6.9398 C.3       1 <0>        -0.1368
      2 C2          8.1464   -9.8490   -6.2114 C.3       1 <0>         0.1149
      3 N1          7.5182   -8.7975   -7.0104 N.4       1 <0>        -0.6886
      4 C3          8.4837   -7.7429   -7.3174 C.3       1 <0>         0.1149
      5 C4          8.9996   -7.1404   -6.0657 C.3       1 <0>        -0.1368
      6 C5          6.3811   -8.2522   -6.3186 C.3       1 <0>         0.0803
      7 C6          5.1501   -9.1322   -6.4564 C.3       1 <0>         0.0890
      8 N2          4.0099   -8.5810   -5.7601 N.am      1 <0>        -0.6138
      9 C7          3.7324   -8.8805   -4.4358 C.2       1 <0>         0.7302
     10 O1          4.4050   -9.6257   -3.7280 O.2       1 <0>        -0.5698
     11 C8          2.5495   -8.2752   -3.8917 C.2       1 <0>        -0.2378
     12 C9          2.2534   -6.8952   -3.7695 C.2       1 <0>        -0.0477
     13 C10         1.0079   -6.7914   -3.1903 C.2       1 <0>        -0.1052
     14 N3          0.5448   -8.0606   -2.9604 N.pl3     1 <0>        -0.1437
     15 C11         1.4759   -8.9728   -3.3836 C.2       1 <0>        -0.0531
     16 C12         1.2314  -10.4227   -3.2530 C.3       1 <0>        -0.0410
     17 C13         0.1707   -5.6930   -2.8124 C.2       1 <0>        -0.0206
     18 C14        -0.7358   -5.1240   -3.6091 C.2       1 <0>        -0.0791
     19 C15        -1.6311   -4.0099   -3.3161 C.ar      1 <0>        -0.1142
     20 C16        -1.8331   -3.2192   -2.2008 C.ar      1 <0>        -0.0984
     21 C17        -2.8031   -2.2141   -2.2784 C.ar      1 <0>         0.0923
     22 C18        -3.5486   -2.0161   -3.4561 C.ar      1 <0>        -0.1140
     23 C19        -3.3388   -2.8190   -4.5789 C.ar      1 <0>        -0.1422
     24 C20        -2.3768   -3.8050   -4.4807 C.ar      1 <0>         0.0619
     25 N4         -2.0015   -4.7183   -5.4724 N.am      1 <0>        -0.4781
     26 C21        -0.9916   -5.5728   -5.0188 C.2       1 <0>         0.6969
     27 O2         -0.4317   -6.4784   -5.6087 O.2       1 <0>        -0.5759
     28 F1         -3.0274   -1.4278   -1.2167 F         1 <0>        -0.1346
     29 C22         3.1212   -5.7734   -4.1865 C.3       1 <0>        -0.0350
     30 H1          9.7423  -11.2518   -6.3154 H         1 <0>         0.0778
     31 H2         10.0442   -9.6957   -7.1604 H         1 <0>         0.0778
     32 H3          8.9317  -10.9080   -7.8810 H         1 <0>         0.0778
     33 H4          7.3934  -10.6199   -5.9908 H         1 <0>         0.1049
     34 H5          8.5059   -9.4077   -5.2701 H         1 <0>         0.1049
     35 H6          9.3243   -8.1692   -7.8846 H         1 <0>         0.1049
     36 H7          7.9948   -6.9616   -7.9179 H         1 <0>         0.1049
     37 H8          9.7239   -6.3496   -6.3108 H         1 <0>         0.0778
     38 H9          9.4937   -7.9159   -5.4620 H         1 <0>         0.0778
     39 H10         8.1642   -6.7084   -5.4952 H         1 <0>         0.0778
     40 H11         6.6147   -8.1563   -5.2480 H         1 <0>         0.1046
     41 H12         6.1411   -7.2614   -6.7317 H         1 <0>         0.1046
     42 H13         4.8878   -9.2318   -7.5200 H         1 <0>         0.0611
     43 H14         5.3613  -10.1266   -6.0362 H         1 <0>         0.0611
     44 H15         3.3248   -7.8967   -6.2820 H         1 <0>         0.3193
     45 H16        -0.4425   -8.2107   -2.4991 H         1 <0>         0.3073
     46 H17         0.2464  -10.5884   -2.7923 H         1 <0>         0.0545
     47 H18         2.0120  -10.8707   -2.6206 H         1 <0>         0.0545
     48 H19         1.2536  -10.8894   -4.2488 H         1 <0>         0.0545
     49 H20         0.3136   -5.3200   -1.7875 H         1 <0>         0.1509
     50 H21        -1.2640   -3.3618   -1.2888 H         1 <0>         0.1533
     51 H22        -4.2956   -1.2275   -3.4894 H         1 <0>         0.1596
     52 H23        -3.9128   -2.6682   -5.4860 H         1 <0>         0.1535
     53 H24        -2.4928   -4.6945   -6.4563 H         1 <0>         0.3498
     54 H25         2.6200   -4.8198   -3.9639 H         1 <0>         0.0529
     55 H26         3.3154   -5.8421   -5.2670 H         1 <0>         0.0529
     56 H27         4.0738   -5.8236   -3.6388 H         1 <0>         0.0529
     57 H28         7.1548   -9.2339   -7.9525 H         1 <0>         0.4521
@<TRIPOS>BOND
     1    1    2 1
     2    1   30 1
     3    1   31 1
     4    1   32 1
     5    2    3 1
     6    2   33 1
     7    2   34 1
     8    3    4 1
     9    3    6 1
    10    3   57 1
    11    4    5 1
    12    4   35 1
    13    4   36 1
    14    5   37 1
    15    5   38 1
    16    5   39 1
    17    6    7 1
    18    6   40 1
    19    6   41 1
    20    7    8 1
    21    7   42 1
    22    7   43 1
    23    8    9 am
    24    8   44 1
    25    9   10 2
    26    9   11 1
    27   11   15 2
    28   11   12 1
    29   12   13 2
    30   12   29 1
    31   13   14 1
    32   13   17 1
    33   14   15 1
    34   14   45 1
    35   15   16 1
    36   16   46 1
    37   16   47 1
    38   16   48 1
    39   17   18 2
    40   17   49 1
    41   18   26 1
    42   18   19 1
    43   19   24 ar
    44   19   20 ar
    45   20   21 ar
    46   20   50 1
    47   21   22 ar
    48   21   28 1
    49   22   23 ar
    50   22   51 1
    51   23   24 ar
    52   23   52 1
    53   24   25 1
    54   25   26 am
    55   25   53 1
    56   26   27 2
    57   29   54 1
    58   29   55 1
    59   29   56 1
@<TRIPOS>MOLECULE
~{N}-[2-(diethylamino)ethyl]-5-[(~{Z})-(5-fluoro-2-oxo-indolin-3-ylidene)methyl]-2,4-dimethyl-1~{H}-pyrrole-3-carboxamide
   56    58     0     0     0
SMALL
USER_CHARGES

@<TRIPOS>ATOM
      1 C1          9.2912  -10.4666   -6.9398 C.3       1 <0>        -0.1126
      2 C2          8.1464   -9.8490   -6.2114 C.3       1 <0>         0.1515
      3 N1          7.5182   -8.7975   -7.0104 N.3       1 <0>        -0.7014
      4 C3          8.4837   -7.7429   -7.3174 C.3       1 <0>         0.1515
      5 C4          8.9996   -7.1404   -6.0657 C.3       1 <0>        -0.1126
      6 C5          6.3811   -8.2522   -6.3186 C.3       1 <0>         0.1422
      7 C6          5.1501   -9.1322   -6.4564 C.3       1 <0>         0.0970
      8 N2          4.0099   -8.5810   -5.7601 N.am      1 <0>        -0.5840
      9 C7          3.7324   -8.8805   -4.4358 C.2       1 <0>         0.7043
     10 O1          4.4050   -9.6257   -3.7280 O.2       1 <0>        -0.6034
     11 C8          2.5495   -8.2752   -3.8917 C.2       1 <0>        -0.2329
     12 C9          2.2534   -6.8952   -3.7695 C.2       1 <0>        -0.0605
     13 C10         1.0079   -6.7914   -3.1903 C.2       1 <0>        -0.1439
     14 N3          0.5448   -8.0606   -2.9604 N.pl3     1 <0>        -0.1467
     15 C11         1.4759   -8.9728   -3.3836 C.2       1 <0>        -0.0103
     16 C12         1.2314  -10.4227   -3.2530 C.3       1 <0>        -0.0459
     17 C13         0.1707   -5.6930   -2.8124 C.2       1 <0>         0.0344
     18 C14        -0.7358   -5.1240   -3.6091 C.2       1 <0>        -0.1360
     19 C15        -1.6311   -4.0099   -3.3161 C.ar      1 <0>        -0.0885
     20 C16        -1.8331   -3.2192   -2.2008 C.ar      1 <0>        -0.1070
     21 C17        -2.8031   -2.2141   -2.2784 C.ar      1 <0>         0.0901
     22 C18        -3.5486   -2.0161   -3.4561 C.ar      1 <0>        -0.1255
     23 C19        -3.3388   -2.8190   -4.5789 C.ar      1 <0>        -0.1458
     24 C20        -2.3768   -3.8050   -4.4807 C.ar      1 <0>         0.0533
     25 N4         -2.0015   -4.7183   -5.4724 N.am      1 <0>        -0.4787
     26 C21        -0.9916   -5.5728   -5.0188 C.2       1 <0>         0.6992
     27 O2         -0.4317   -6.4784   -5.6087 O.2       1 <0>        -0.5909
     28 F1         -3.0274   -1.4278   -1.2167 F         1 <0>        -0.1405
     29 C22         3.1212   -5.7734   -4.1865 C.3       1 <0>        -0.0362
     30 H1          9.7423  -11.2518   -6.3154 H         1 <0>         0.0386
     31 H2         10.0442   -9.6957   -7.1604 H         1 <0>         0.0386
     32 H3          8.9317  -10.9080   -7.8810 H         1 <0>         0.0386
     33 H4          7.3934  -10.6199   -5.9908 H         1 <0>         0.0444
     34 H5          8.5059   -9.4077   -5.2701 H         1 <0>         0.0444
     35 H6          9.3243   -8.1692   -7.8846 H         1 <0>         0.0444
     36 H7          7.9948   -6.9616   -7.9179 H         1 <0>         0.0444
     37 H8          9.7239   -6.3496   -6.3108 H         1 <0>         0.0386
     38 H9          9.4937   -7.9159   -5.4620 H         1 <0>         0.0386
     39 H10         8.1642   -6.7084   -5.4952 H         1 <0>         0.0386
     40 H11         6.6147   -8.1563   -5.2480 H         1 <0>         0.0328
     41 H12         6.1411   -7.2614   -6.7317 H         1 <0>         0.0328
     42 H13         4.8878   -9.2318   -7.5200 H         1 <0>         0.0577
     43 H14         5.3613  -10.1266   -6.0362 H         1 <0>         0.0577
     44 H15         3.3248   -7.8967   -6.2820 H         1 <0>         0.3128
     45 H16        -0.4425   -8.2107   -2.4991 H         1 <0>         0.3038
     46 H17         0.2464  -10.5884   -2.7923 H         1 <0>         0.0625
     47 H18         2.0120  -10.8707   -2.6206 H         1 <0>         0.0625
     48 H19         1.2536  -10.8894   -4.2488 H         1 <0>         0.0625
     49 H20         0.3136   -5.3200   -1.7875 H         1 <0>         0.1473
     50 H21        -1.2640   -3.3618   -1.2888 H         1 <0>         0.1528
     51 H22        -4.2956   -1.2275   -3.4894 H         1 <0>         0.1522
     52 H23        -3.9128   -2.6682   -5.4860 H         1 <0>         0.1475
     53 H24        -2.4928   -4.6945   -6.4563 H         1 <0>         0.3442
     54 H25         2.6200   -4.8198   -3.9639 H         1 <0>         0.0471
     55 H26         3.3154   -5.8421   -5.2670 H         1 <0>         0.0471
     56 H27         4.0738   -5.8236   -3.6388 H         1 <0>         0.0471
@<TRIPOS>BOND
     1    1    2 1
     2    1   30 1
     3    1   31 1
     4    1   32 1
     5    2    3 1
     6    2   33 1
     7    2   34 1
     8    3    4 1
     9    3    6 1
    10    4    5 1
    11    4   35 1
    12    4   36 1
    13    5   37 1
    14    5   38 1
    15    5   39 1
    16    6    7 1
    17    6   40 1
    18    6   41 1
    19    7    8 1
    20    7   42 1
    21    7   43 1
    22    8    9 am
    23    8   44 1
    24    9   10 2
    25    9   11 1
    26   11   15 2
    27   11   12 1
    28   12   13 2
    29   12   29 1
    30   13   14 1
    31   13   17 1
    32   14   15 1
    33   14   45 1
    34   15   16 1
    35   16   46 1
    36   16   47 1
    37   16   48 1
    38   17   18 2
    39   17   49 1
    40   18   26 1
    41   18   19 1
    42   19   24 ar
    43   19   20 ar
    44   20   21 ar
    45   20   50 1
    46   21   22 ar
    47   21   28 1
    48   22   23 ar
    49   22   51 1
    50   23   24 ar
    51   23   52 1
    52   24   25 1
    53   25   26 am
    54   25   53 1
    55   26   27 2
    56   29   54 1
    57   29   55 1
    58   29   56 1
@<TRIPOS>MOLECULE
(3~{Z})-~{N}-[2-(diethylammonio)ethyl]-5-[(~{Z})-(5-fluoro-2-oxo-indolin-3-ylidene)methyl]-2,4-dimethyl-1~{H}-pyrrole-3-carboximidate
   56    58     0     0     0
SMALL
USER_CHARGES

@<TRIPOS>ATOM
      1 C1          9.2912  -10.4666   -6.9398 C.3       1 <0>        -0.1275
      2 C2          8.1464   -9.8490   -6.2114 C.3       1 <0>         0.1059
      3 N1          7.5182   -8.7975   -7.0104 N.4       1 <0>        -0.6851
      4 C3          8.4837   -7.7429   -7.3174 C.3       1 <0>         0.1059
      5 C4          8.9996   -7.1404   -6.0657 C.3       1 <0>        -0.1275
      6 C5          6.3811   -8.2522   -6.3186 C.3       1 <0>         0.1085
      7 C6          5.1501   -9.1322   -6.4564 C.3       1 <0>         0.1935
      8 N2          4.0099   -8.5810   -5.7601 N.2       1 <0>        -0.9305
      9 C7          3.7324   -8.8805   -4.4358 C.2       1 <0>         0.9643
     10 O1          4.4050   -9.6257   -3.7280 O.3       1 <0>        -0.8249
     11 C8          2.5495   -8.2752   -3.8917 C.2       1 <0>        -0.1629
     12 C9          2.2534   -6.8952   -3.7695 C.2       1 <0>        -0.0693
     13 C10         1.0079   -6.7914   -3.1903 C.2       1 <0>        -0.1704
     14 N3          0.5448   -8.0606   -2.9604 N.pl3     1 <0>        -0.1700
     15 C11         1.4759   -8.9728   -3.3836 C.2       1 <0>        -0.0866
     16 C12         1.2314  -10.4227   -3.2530 C.3       1 <0>        -0.0226
     17 C13         0.1707   -5.6930   -2.8124 C.2       1 <0>         0.0503
     18 C14        -0.7358   -5.1240   -3.6091 C.2       1 <0>        -0.1297
     19 C15        -1.6311   -4.0099   -3.3161 C.ar      1 <0>        -0.0905
     20 C16        -1.8331   -3.2192   -2.2008 C.ar      1 <0>        -0.1081
     21 C17        -2.8031   -2.2141   -2.2784 C.ar      1 <0>         0.0803
     22 C18        -3.5486   -2.0161   -3.4561 C.ar      1 <0>        -0.1282
     23 C19        -3.3388   -2.8190   -4.5789 C.ar      1 <0>        -0.1583
     24 C20        -2.3768   -3.8050   -4.4807 C.ar      1 <0>         0.0644
     25 N4         -2.0015   -4.7183   -5.4724 N.am      1 <0>        -0.4912
     26 C21        -0.9916   -5.5728   -5.0188 C.2       1 <0>         0.7015
     27 O2         -0.4317   -6.4784   -5.6087 O.2       1 <0>        -0.5542
     28 F1         -3.0274   -1.4278   -1.2167 F         1 <0>        -0.1461
     29 C22         3.1212   -5.7734   -4.1865 C.3       1 <0>        -0.0213
     30 H1          9.7423  -11.2518   -6.3154 H         1 <0>         0.0657
     31 H2         10.0442   -9.6957   -7.1604 H         1 <0>         0.0657
     32 H3          8.9317  -10.9080   -7.8810 H         1 <0>         0.0657
     33 H4          7.3934  -10.6199   -5.9908 H         1 <0>         0.0988
     34 H5          8.5059   -9.4077   -5.2701 H         1 <0>         0.0988
     35 H6          9.3243   -8.1692   -7.8846 H         1 <0>         0.0988
     36 H7          7.9948   -6.9616   -7.9179 H         1 <0>         0.0988
     37 H8          9.7239   -6.3496   -6.3108 H         1 <0>         0.0657
     38 H9          9.4937   -7.9159   -5.4620 H         1 <0>         0.0657
     39 H10         8.1642   -6.7084   -5.4952 H         1 <0>         0.0657
     40 H11         6.6147   -8.1563   -5.2480 H         1 <0>         0.0922
     41 H12         6.1411   -7.2614   -6.7317 H         1 <0>         0.0922
     42 H13         4.8878   -9.2318   -7.5200 H         1 <0>        -0.0151
     43 H14         5.3613  -10.1266   -6.0362 H         1 <0>        -0.0151
     44 H15        -0.4425   -8.2107   -2.4991 H         1 <0>         0.2822
     45 H16         0.2464  -10.5884   -2.7923 H         1 <0>         0.0434
     46 H17         2.0120  -10.8707   -2.6206 H         1 <0>         0.0434
     47 H18         1.2536  -10.8894   -4.2488 H         1 <0>         0.0434
     48 H19         0.3136   -5.3200   -1.7875 H         1 <0>         0.1344
     49 H20        -1.2640   -3.3618   -1.2888 H         1 <0>         0.1516
     50 H21        -4.2956   -1.2275   -3.4894 H         1 <0>         0.1466
     51 H22        -3.9128   -2.6682   -5.4860 H         1 <0>         0.1430
     52 H23        -2.4928   -4.6945   -6.4563 H         1 <0>         0.3400
     53 H24         2.6200   -4.8198   -3.9639 H         1 <0>         0.0382
     54 H25         3.3154   -5.8421   -5.2670 H         1 <0>         0.0382
     55 H26         4.0738   -5.8236   -3.6388 H         1 <0>         0.0382
     56 H27         7.1548   -9.2339   -7.9525 H         1 <0>         0.4444
@<TRIPOS>BOND
     1    1    2 1
     2    1   30 1
     3    1   31 1
     4    1   32 1
     5    2    3 1
     6    2   33 1
     7    2   34 1
     8    3    4 1
     9    3    6 1
    10    3   56 1
    11    4    5 1
    12    4   35 1
    13    4   36 1
    14    5   37 1
    15    5   38 1
    16    5   39 1
    17    6    7 1
    18    6   40 1
    19    6   41 1
    20    7    8 1
    21    7   42 1
    22    7   43 1
    23    8    9 2
    24    9   10 1
    25    9   11 1
    26   11   15 2
    27   11   12 1
    28   12   13 2
    29   12   29 1
    30   13   14 1
    31   13   17 1
    32   14   15 1
    33   14   44 1
    34   15   16 1
    35   16   45 1
    36   16   46 1
    37   16   47 1
    38   17   18 2
    39   17   48 1
    40   18   26 1
    41   18   19 1
    42   19   24 ar
    43   19   20 ar
    44   20   21 ar
    45   20   49 1
    46   21   22 ar
    47   21   28 1
    48   22   23 ar
    49   22   50 1
    50   23   24 ar
    51   23   51 1
    52   24   25 1
    53   25   26 am
    54   25   52 1
    55   26   27 2
    56   29   53 1
    57   29   54 1
    58   29   55 1
@<TRIPOS>MOLECULE
(3~{Z})-3-[[4-[2-(diethylammonio)ethylcarbamoyl]-3,5-dimethyl-1~{H}-pyrrol-2-yl]methylene]-5-fluoro-indol-2-olate
   56    58     0     0     0
SMALL
USER_CHARGES

@<TRIPOS>ATOM
      1 C1          9.2912  -10.4666   -6.9398 C.3       1 <0>        -0.1362
      2 C2          8.1464   -9.8490   -6.2114 C.3       1 <0>         0.1135
      3 N1          7.5182   -8.7975   -7.0104 N.4       1 <0>        -0.6870
      4 C3          8.4837   -7.7429   -7.3174 C.3       1 <0>         0.1135
      5 C4          8.9996   -7.1404   -6.0657 C.3       1 <0>        -0.1362
      6 C5          6.3811   -8.2522   -6.3186 C.3       1 <0>         0.0799
      7 C6          5.1501   -9.1322   -6.4564 C.3       1 <0>         0.0984
      8 N2          4.0099   -8.5810   -5.7601 N.am      1 <0>        -0.6254
      9 C7          3.7324   -8.8805   -4.4358 C.2       1 <0>         0.7409
     10 O1          4.4050   -9.6257   -3.7280 O.2       1 <0>        -0.5832
     11 C8          2.5495   -8.2752   -3.8917 C.2       1 <0>        -0.2332
     12 C9          2.2534   -6.8952   -3.7695 C.2       1 <0>        -0.0911
     13 C10         1.0079   -6.7914   -3.1903 C.2       1 <0>         0.0003
     14 N3          0.5448   -8.0606   -2.9604 N.pl3     1 <0>        -0.1408
     15 C11         1.4759   -8.9728   -3.3836 C.2       1 <0>        -0.0991
     16 C12         1.2314  -10.4227   -3.2530 C.3       1 <0>        -0.0265
     17 C13         0.1707   -5.6930   -2.8124 C.2       1 <0>        -0.1707
     18 C14        -0.7358   -5.1240   -3.6091 C.2       1 <0>        -0.1151
     19 C15        -1.6311   -4.0099   -3.3161 C.ar      1 <0>        -0.2497
     20 C16        -1.8331   -3.2192   -2.2008 C.ar      1 <0>        -0.0599
     21 C17        -2.8031   -2.2141   -2.2784 C.ar      1 <0>        -0.0339
     22 C18        -3.5486   -2.0161   -3.4561 C.ar      1 <0>        -0.0912
     23 C19        -3.3388   -2.8190   -4.5789 C.ar      1 <0>        -0.2026
     24 C20        -2.3768   -3.8050   -4.4807 C.ar      1 <0>         0.2572
     25 N4         -2.0015   -4.7183   -5.4724 N.2       1 <0>        -0.7811
     26 C21        -0.9916   -5.5728   -5.0188 C.2       1 <0>         0.9500
     27 O2         -0.4317   -6.4784   -5.6087 O.3       1 <0>        -0.6912
     28 F1         -3.0274   -1.4278   -1.2167 F         1 <0>        -0.1788
     29 C22         3.1212   -5.7734   -4.1865 C.3       1 <0>        -0.0205
     30 H1          9.7423  -11.2518   -6.3154 H         1 <0>         0.0752
     31 H2         10.0442   -9.6957   -7.1604 H         1 <0>         0.0752
     32 H3          8.9317  -10.9080   -7.8810 H         1 <0>         0.0752
     33 H4          7.3934  -10.6199   -5.9908 H         1 <0>         0.1043
     34 H5          8.5059   -9.4077   -5.2701 H         1 <0>         0.1043
     35 H6          9.3243   -8.1692   -7.8846 H         1 <0>         0.1043
     36 H7          7.9948   -6.9616   -7.9179 H         1 <0>         0.1043
     37 H8          9.7239   -6.3496   -6.3108 H         1 <0>         0.0752
     38 H9          9.4937   -7.9159   -5.4620 H         1 <0>         0.0752
     39 H10         8.1642   -6.7084   -5.4952 H         1 <0>         0.0752
     40 H11         6.6147   -8.1563   -5.2480 H         1 <0>         0.1032
     41 H12         6.1411   -7.2614   -6.7317 H         1 <0>         0.1032
     42 H13         4.8878   -9.2318   -7.5200 H         1 <0>         0.0534
     43 H14         5.3613  -10.1266   -6.0362 H         1 <0>         0.0534
     44 H15         3.3248   -7.8967   -6.2820 H         1 <0>         0.3190
     45 H16        -0.4425   -8.2107   -2.4991 H         1 <0>         0.3056
     46 H17         0.2464  -10.5884   -2.7923 H         1 <0>         0.0404
     47 H18         2.0120  -10.8707   -2.6206 H         1 <0>         0.0404
     48 H19         1.2536  -10.8894   -4.2488 H         1 <0>         0.0404
     49 H20         0.3136   -5.3200   -1.7875 H         1 <0>         0.1225
     50 H21        -1.2640   -3.3618   -1.2888 H         1 <0>         0.1166
     51 H22        -4.2956   -1.2275   -3.4894 H         1 <0>         0.1176
     52 H23        -3.9128   -2.6682   -5.4860 H         1 <0>         0.1321
     53 H24         2.6200   -4.8198   -3.9639 H         1 <0>         0.0438
     54 H25         3.3154   -5.8421   -5.2670 H         1 <0>         0.0438
     55 H26         4.0738   -5.8236   -3.6388 H         1 <0>         0.0438
     56 H27         7.1548   -9.2339   -7.9525 H         1 <0>         0.4519
@<TRIPOS>BOND
     1    1    2 1
     2    1   30 1
     3    1   31 1
     4    1   32 1
     5    2    3 1
     6    2   33 1
     7    2   34 1
     8    3    4 1
     9    3    6 1
    10    3   56 1
    11    4    5 1
    12    4   35 1
    13    4   36 1
    14    5   37 1
    15    5   38 1
    16    5   39 1
    17    6    7 1
    18    6   40 1
    19    6   41 1
    20    7    8 1
    21    7   42 1
    22    7   43 1
    23    8    9 am
    24    8   44 1
    25    9   10 2
    26    9   11 1
    27   11   15 2
    28   11   12 1
    29   12   13 2
    30   12   29 1
    31   13   14 1
    32   13   17 1
    33   14   15 1
    34   14   45 1
    35   15   16 1
    36   16   46 1
    37   16   47 1
    38   16   48 1
    39   17   18 2
    40   17   49 1
    41   18   26 1
    42   18   19 1
    43   19   24 ar
    44   19   20 ar
    45   20   21 ar
    46   20   50 1
    47   21   22 ar
    48   21   28 1
    49   22   23 ar
    50   22   51 1
    51   23   24 ar
    52   23   52 1
    53   24   25 1
    54   25   26 2
    55   26   27 1
    56   29   53 1
    57   29   54 1
    58   29   55 1
