~{N}-[2-(diethylamino)ethyl]-5-[(~{Z})-(5-fluoro-2-oxo-indolin-3-ylidene)methyl]-2,4-dimethyl-1~{H}-pyrrole-3-carboxamide
                    3D
 Structure written by MMmdl.
 57 59  0  0  1  0            999 V2000
    9.2912  -10.4666   -6.9398 C   0  0  0  0  0  0
    8.1464   -9.8490   -6.2114 C   0  0  0  0  0  0
    7.5182   -8.7975   -7.0104 N   0  3  0  0  0  0
    8.4837   -7.7429   -7.3174 C   0  0  0  0  0  0
    8.9996   -7.1404   -6.0657 C   0  0  0  0  0  0
    6.3811   -8.2522   -6.3186 C   0  0  0  0  0  0
    5.1501   -9.1322   -6.4564 C   0  0  0  0  0  0
    4.0099   -8.5810   -5.7601 N   0  0  0  0  0  0
    3.7324   -8.8805   -4.4358 C   0  0  0  0  0  0
    4.4050   -9.6257   -3.7280 O   0  0  0  0  0  0
    2.5495   -8.2752   -3.8917 C   0  0  0  0  0  0
    2.2534   -6.8952   -3.7695 C   0  0  0  0  0  0
    1.0079   -6.7914   -3.1903 C   0  0  0  0  0  0
    0.5448   -8.0606   -2.9604 N   0  0  0  0  0  0
    1.4759   -8.9728   -3.3836 C   0  0  0  0  0  0
    1.2314  -10.4227   -3.2530 C   0  0  0  0  0  0
    0.1707   -5.6930   -2.8124 C   0  0  0  0  0  0
   -0.7358   -5.1240   -3.6091 C   0  0  0  0  0  0
   -1.6311   -4.0099   -3.3161 C   0  0  0  0  0  0
   -1.8331   -3.2192   -2.2008 C   0  0  0  0  0  0
   -2.8031   -2.2141   -2.2784 C   0  0  0  0  0  0
   -3.5486   -2.0161   -3.4561 C   0  0  0  0  0  0
   -3.3388   -2.8190   -4.5789 C   0  0  0  0  0  0
   -2.3768   -3.8050   -4.4807 C   0  0  0  0  0  0
   -2.0015   -4.7183   -5.4724 N   0  0  0  0  0  0
   -0.9916   -5.5728   -5.0188 C   0  0  0  0  0  0
   -0.4317   -6.4784   -5.6087 O   0  0  0  0  0  0
   -3.0274   -1.4278   -1.2167 F   0  0  0  0  0  0
    3.1212   -5.7734   -4.1865 C   0  0  0  0  0  0
    9.7423  -11.2518   -6.3154 H   0  0  0  0  0  0
   10.0442   -9.6957   -7.1604 H   0  0  0  0  0  0
    8.9317  -10.9080   -7.8810 H   0  0  0  0  0  0
    7.3934  -10.6199   -5.9908 H   0  0  0  0  0  0
    8.5059   -9.4077   -5.2701 H   0  0  0  0  0  0
    9.3243   -8.1692   -7.8846 H   0  0  0  0  0  0
    7.9948   -6.9616   -7.9179 H   0  0  0  0  0  0
    9.7239   -6.3496   -6.3108 H   0  0  0  0  0  0
    9.4937   -7.9159   -5.4620 H   0  0  0  0  0  0
    8.1642   -6.7084   -5.4952 H   0  0  0  0  0  0
    6.6147   -8.1563   -5.2480 H   0  0  0  0  0  0
    6.1411   -7.2614   -6.7317 H   0  0  0  0  0  0
    4.8878   -9.2318   -7.5200 H   0  0  0  0  0  0
    5.3613  -10.1266   -6.0362 H   0  0  0  0  0  0
    3.3248   -7.8967   -6.2820 H   0  0  0  0  0  0
   -0.4425   -8.2107   -2.4991 H   0  0  0  0  0  0
    0.2464  -10.5884   -2.7923 H   0  0  0  0  0  0
    2.0120  -10.8707   -2.6206 H   0  0  0  0  0  0
    1.2536  -10.8894   -4.2488 H   0  0  0  0  0  0
    0.3136   -5.3200   -1.7875 H   0  0  0  0  0  0
   -1.2640   -3.3618   -1.2888 H   0  0  0  0  0  0
   -4.2956   -1.2275   -3.4894 H   0  0  0  0  0  0
   -3.9128   -2.6682   -5.4860 H   0  0  0  0  0  0
   -2.4928   -4.6945   -6.4563 H   0  0  0  0  0  0
    2.6200   -4.8198   -3.9639 H   0  0  0  0  0  0
    3.3154   -5.8421   -5.2670 H   0  0  0  0  0  0
    4.0738   -5.8236   -3.6388 H   0  0  0  0  0  0
    7.1548   -9.2339   -7.9525 H   0  0  0  0  0  0
  1  2  1  0  0  0
  1 30  1  0  0  0
  1 31  1  0  0  0
  1 32  1  0  0  0
  2  3  1  0  0  0
  2 33  1  0  0  0
  2 34  1  0  0  0
  3  4  1  0  0  0
  3  6  1  0  0  0
  3 57  1  0  0  0
  4  5  1  0  0  0
  4 35  1  0  0  0
  4 36  1  0  0  0
  5 37  1  0  0  0
  5 38  1  0  0  0
  5 39  1  0  0  0
  6  7  1  0  0  0
  6 40  1  0  0  0
  6 41  1  0  0  0
  7  8  1  0  0  0
  7 42  1  0  0  0
  7 43  1  0  0  0
  8  9  1  0  0  0
  8 44  1  0  0  0
  9 10  2  0  0  0
  9 11  1  0  0  0
 11 15  2  0  0  0
 11 12  1  0  0  0
 12 13  2  0  0  0
 12 29  1  0  0  0
 13 14  1  0  0  0
 13 17  1  0  0  0
 14 15  1  0  0  0
 14 45  1  0  0  0
 15 16  1  0  0  0
 16 46  1  0  0  0
 16 47  1  0  0  0
 16 48  1  0  0  0
 17 18  2  0  0  0
 17 49  1  0  0  0
 18 26  1  0  0  0
 18 19  1  0  0  0
 19 24  2  0  0  0
 19 20  1  0  0  0
 20 21  2  0  0  0
 20 50  1  0  0  0
 21 22  1  0  0  0
 21 28  1  0  0  0
 22 23  2  0  0  0
 22 51  1  0  0  0
 23 24  1  0  0  0
 23 52  1  0  0  0
 24 25  1  0  0  0
 25 26  1  0  0  0
 25 53  1  0  0  0
 26 27  2  0  0  0
 29 54  1  0  0  0
 29 55  1  0  0  0
 29 56  1  0  0  0
M  CHG  1   3   1
M  END
> <s_m_source_file>
/Users/andrea/Development/mcce-charges/epik_inhibitors/output/Sunitinib/Sunitinib-input.mol2

> <i_m_source_file_index>
1

> <r_epik_Ionization_Penalty>
  0.0103

> <r_epik_Ionization_Penalty_Charging>
  0.0102

> <r_epik_Ionization_Penalty_Neutral>
  0.0002

> <r_epik_State_Penalty>
  0.0097

> <i_epik_Tot_Q>
1

$$$$
~{N}-[2-(diethylamino)ethyl]-5-[(~{Z})-(5-fluoro-2-oxo-indolin-3-ylidene)methyl]-2,4-dimethyl-1~{H}-pyrrole-3-carboxamide
                    3D
 Structure written by MMmdl.
 56 58  0  0  1  0            999 V2000
    9.2912  -10.4666   -6.9398 C   0  0  0  0  0  0
    8.1464   -9.8490   -6.2114 C   0  0  0  0  0  0
    7.5182   -8.7975   -7.0104 N   0  0  0  0  0  0
    8.4837   -7.7429   -7.3174 C   0  0  0  0  0  0
    8.9996   -7.1404   -6.0657 C   0  0  0  0  0  0
    6.3811   -8.2522   -6.3186 C   0  0  0  0  0  0
    5.1501   -9.1322   -6.4564 C   0  0  0  0  0  0
    4.0099   -8.5810   -5.7601 N   0  0  0  0  0  0
    3.7324   -8.8805   -4.4358 C   0  0  0  0  0  0
    4.4050   -9.6257   -3.7280 O   0  0  0  0  0  0
    2.5495   -8.2752   -3.8917 C   0  0  0  0  0  0
    2.2534   -6.8952   -3.7695 C   0  0  0  0  0  0
    1.0079   -6.7914   -3.1903 C   0  0  0  0  0  0
    0.5448   -8.0606   -2.9604 N   0  0  0  0  0  0
    1.4759   -8.9728   -3.3836 C   0  0  0  0  0  0
    1.2314  -10.4227   -3.2530 C   0  0  0  0  0  0
    0.1707   -5.6930   -2.8124 C   0  0  0  0  0  0
   -0.7358   -5.1240   -3.6091 C   0  0  0  0  0  0
   -1.6311   -4.0099   -3.3161 C   0  0  0  0  0  0
   -1.8331   -3.2192   -2.2008 C   0  0  0  0  0  0
   -2.8031   -2.2141   -2.2784 C   0  0  0  0  0  0
   -3.5486   -2.0161   -3.4561 C   0  0  0  0  0  0
   -3.3388   -2.8190   -4.5789 C   0  0  0  0  0  0
   -2.3768   -3.8050   -4.4807 C   0  0  0  0  0  0
   -2.0015   -4.7183   -5.4724 N   0  0  0  0  0  0
   -0.9916   -5.5728   -5.0188 C   0  0  0  0  0  0
   -0.4317   -6.4784   -5.6087 O   0  0  0  0  0  0
   -3.0274   -1.4278   -1.2167 F   0  0  0  0  0  0
    3.1212   -5.7734   -4.1865 C   0  0  0  0  0  0
    9.7423  -11.2518   -6.3154 H   0  0  0  0  0  0
   10.0442   -9.6957   -7.1604 H   0  0  0  0  0  0
    8.9317  -10.9080   -7.8810 H   0  0  0  0  0  0
    7.3934  -10.6199   -5.9908 H   0  0  0  0  0  0
    8.5059   -9.4077   -5.2701 H   0  0  0  0  0  0
    9.3243   -8.1692   -7.8846 H   0  0  0  0  0  0
    7.9948   -6.9616   -7.9179 H   0  0  0  0  0  0
    9.7239   -6.3496   -6.3108 H   0  0  0  0  0  0
    9.4937   -7.9159   -5.4620 H   0  0  0  0  0  0
    8.1642   -6.7084   -5.4952 H   0  0  0  0  0  0
    6.6147   -8.1563   -5.2480 H   0  0  0  0  0  0
    6.1411   -7.2614   -6.7317 H   0  0  0  0  0  0
    4.8878   -9.2318   -7.5200 H   0  0  0  0  0  0
    5.3613  -10.1266   -6.0362 H   0  0  0  0  0  0
    3.3248   -7.8967   -6.2820 H   0  0  0  0  0  0
   -0.4425   -8.2107   -2.4991 H   0  0  0  0  0  0
    0.2464  -10.5884   -2.7923 H   0  0  0  0  0  0
    2.0120  -10.8707   -2.6206 H   0  0  0  0  0  0
    1.2536  -10.8894   -4.2488 H   0  0  0  0  0  0
    0.3136   -5.3200   -1.7875 H   0  0  0  0  0  0
   -1.2640   -3.3618   -1.2888 H   0  0  0  0  0  0
   -4.2956   -1.2275   -3.4894 H   0  0  0  0  0  0
   -3.9128   -2.6682   -5.4860 H   0  0  0  0  0  0
   -2.4928   -4.6945   -6.4563 H   0  0  0  0  0  0
    2.6200   -4.8198   -3.9639 H   0  0  0  0  0  0
    3.3154   -5.8421   -5.2670 H   0  0  0  0  0  0
    4.0738   -5.8236   -3.6388 H   0  0  0  0  0  0
  1  2  1  0  0  0
  1 30  1  0  0  0
  1 31  1  0  0  0
  1 32  1  0  0  0
  2  3  1  0  0  0
  2 33  1  0  0  0
  2 34  1  0  0  0
  3  4  1  0  0  0
  3  6  1  0  0  0
  4  5  1  0  0  0
  4 35  1  0  0  0
  4 36  1  0  0  0
  5 37  1  0  0  0
  5 38  1  0  0  0
  5 39  1  0  0  0
  6  7  1  0  0  0
  6 40  1  0  0  0
  6 41  1  0  0  0
  7  8  1  0  0  0
  7 42  1  0  0  0
  7 43  1  0  0  0
  8  9  1  0  0  0
  8 44  1  0  0  0
  9 10  2  0  0  0
  9 11  1  0  0  0
 11 15  2  0  0  0
 11 12  1  0  0  0
 12 13  2  0  0  0
 12 29  1  0  0  0
 13 14  1  0  0  0
 13 17  1  0  0  0
 14 15  1  0  0  0
 14 45  1  0  0  0
 15 16  1  0  0  0
 16 46  1  0  0  0
 16 47  1  0  0  0
 16 48  1  0  0  0
 17 18  2  0  0  0
 17 49  1  0  0  0
 18 26  1  0  0  0
 18 19  1  0  0  0
 19 24  2  0  0  0
 19 20  1  0  0  0
 20 21  2  0  0  0
 20 50  1  0  0  0
 21 22  1  0  0  0
 21 28  1  0  0  0
 22 23  2  0  0  0
 22 51  1  0  0  0
 23 24  1  0  0  0
 23 52  1  0  0  0
 24 25  1  0  0  0
 25 26  1  0  0  0
 25 53  1  0  0  0
 26 27  2  0  0  0
 29 54  1  0  0  0
 29 55  1  0  0  0
 29 56  1  0  0  0
M  END
> <s_m_source_file>
/Users/andrea/Development/mcce-charges/epik_inhibitors/output/Sunitinib/Sunitinib-input.mol2

> <i_m_source_file_index>
1

> <r_epik_Ionization_Penalty>
  2.4139

> <r_epik_Ionization_Penalty_Charging>
  0.0000

> <r_epik_Ionization_Penalty_Neutral>
  2.4139

> <r_epik_State_Penalty>
  2.4483

> <i_epik_Tot_Q>
0

$$$$
~{N}-[2-(diethylamino)ethyl]-5-[(~{Z})-(5-fluoro-2-oxo-indolin-3-ylidene)methyl]-2,4-dimethyl-1~{H}-pyrrole-3-carboxamide
                    3D
 Structure written by MMmdl.
 57 59  0  0  1  0            999 V2000
    9.2912  -10.4666   -6.9398 C   0  0  0  0  0  0
    8.1464   -9.8490   -6.2114 C   0  0  0  0  0  0
    7.5182   -8.7975   -7.0104 N   0  3  0  0  0  0
    8.4837   -7.7429   -7.3174 C   0  0  0  0  0  0
    8.9996   -7.1404   -6.0657 C   0  0  0  0  0  0
    6.3811   -8.2522   -6.3186 C   0  0  0  0  0  0
    5.1501   -9.1322   -6.4564 C   0  0  0  0  0  0
    4.0099   -8.5810   -5.7601 N   0  0  0  0  0  0
    3.7324   -8.8805   -4.4358 C   0  0  0  0  0  0
    4.4050   -9.6257   -3.7280 O   0  0  0  0  0  0
    2.5495   -8.2752   -3.8917 C   0  0  0  0  0  0
    2.2534   -6.8952   -3.7695 C   0  0  0  0  0  0
    1.0079   -6.7914   -3.1903 C   0  0  0  0  0  0
    0.5448   -8.0606   -2.9604 N   0  0  0  0  0  0
    1.4759   -8.9728   -3.3836 C   0  0  0  0  0  0
    1.2314  -10.4227   -3.2530 C   0  0  0  0  0  0
    0.1707   -5.6930   -2.8124 C   0  0  0  0  0  0
   -0.7358   -5.1240   -3.6091 C   0  0  0  0  0  0
   -1.6311   -4.0099   -3.3161 C   0  0  0  0  0  0
   -1.8331   -3.2192   -2.2008 C   0  0  0  0  0  0
   -2.8031   -2.2141   -2.2784 C   0  0  0  0  0  0
   -3.5486   -2.0161   -3.4561 C   0  0  0  0  0  0
   -3.3388   -2.8190   -4.5789 C   0  0  0  0  0  0
   -2.3768   -3.8050   -4.4807 C   0  0  0  0  0  0
   -2.0015   -4.7183   -5.4724 N   0  5  0  0  0  0
   -0.9916   -5.5728   -5.0188 C   0  0  0  0  0  0
   -0.4317   -6.4784   -5.6087 O   0  3  0  0  0  0
   -3.0274   -1.4278   -1.2167 F   0  0  0  0  0  0
    3.1212   -5.7734   -4.1865 C   0  0  0  0  0  0
    9.7423  -11.2518   -6.3154 H   0  0  0  0  0  0
   10.0442   -9.6957   -7.1604 H   0  0  0  0  0  0
    8.9317  -10.9080   -7.8810 H   0  0  0  0  0  0
    7.3934  -10.6199   -5.9908 H   0  0  0  0  0  0
    8.5059   -9.4077   -5.2701 H   0  0  0  0  0  0
    9.3243   -8.1692   -7.8846 H   0  0  0  0  0  0
    7.9948   -6.9616   -7.9179 H   0  0  0  0  0  0
    9.7239   -6.3496   -6.3108 H   0  0  0  0  0  0
    9.4937   -7.9159   -5.4620 H   0  0  0  0  0  0
    8.1642   -6.7084   -5.4952 H   0  0  0  0  0  0
    6.6147   -8.1563   -5.2480 H   0  0  0  0  0  0
    6.1411   -7.2614   -6.7317 H   0  0  0  0  0  0
    4.8878   -9.2318   -7.5200 H   0  0  0  0  0  0
    5.3613  -10.1266   -6.0362 H   0  0  0  0  0  0
    3.3248   -7.8967   -6.2820 H   0  0  0  0  0  0
   -0.4425   -8.2107   -2.4991 H   0  0  0  0  0  0
    0.2464  -10.5884   -2.7923 H   0  0  0  0  0  0
    2.0120  -10.8707   -2.6206 H   0  0  0  0  0  0
    1.2536  -10.8894   -4.2488 H   0  0  0  0  0  0
    0.3136   -5.3200   -1.7875 H   0  0  0  0  0  0
   -1.2640   -3.3618   -1.2888 H   0  0  0  0  0  0
   -4.2956   -1.2275   -3.4894 H   0  0  0  0  0  0
   -3.9128   -2.6682   -5.4860 H   0  0  0  0  0  0
    2.6200   -4.8198   -3.9639 H   0  0  0  0  0  0
    3.3154   -5.8421   -5.2670 H   0  0  0  0  0  0
    4.0738   -5.8236   -3.6388 H   0  0  0  0  0  0
   -0.7093   -6.7130   -6.6469 H   0  0  0  0  0  0
    7.1548   -9.2339   -7.9525 H   0  0  0  0  0  0
  1  2  1  0  0  0
  1 30  1  0  0  0
  1 31  1  0  0  0
  1 32  1  0  0  0
  2  3  1  0  0  0
  2 33  1  0  0  0
  2 34  1  0  0  0
  3  4  1  0  0  0
  3  6  1  0  0  0
  3 57  1  0  0  0
  4  5  1  0  0  0
  4 35  1  0  0  0
  4 36  1  0  0  0
  5 37  1  0  0  0
  5 38  1  0  0  0
  5 39  1  0  0  0
  6  7  1  0  0  0
  6 40  1  0  0  0
  6 41  1  0  0  0
  7  8  1  0  0  0
  7 42  1  0  0  0
  7 43  1  0  0  0
  8  9  1  0  0  0
  8 44  1  0  0  0
  9 10  2  0  0  0
  9 11  1  0  0  0
 11 15  2  0  0  0
 11 12  1  0  0  0
 12 13  2  0  0  0
 12 29  1  0  0  0
 13 14  1  0  0  0
 13 17  1  0  0  0
 14 15  1  0  0  0
 14 45  1  0  0  0
 15 16  1  0  0  0
 16 46  1  0  0  0
 16 47  1  0  0  0
 16 48  1  0  0  0
 17 18  2  0  0  0
 17 49  1  0  0  0
 18 26  1  0  0  0
 18 19  1  0  0  0
 19 24  2  0  0  0
 19 20  1  0  0  0
 20 21  2  0  0  0
 20 50  1  0  0  0
 21 22  1  0  0  0
 21 28  1  0  0  0
 22 23  2  0  0  0
 22 51  1  0  0  0
 23 24  1  0  0  0
 23 52  1  0  0  0
 24 25  1  0  0  0
 25 26  1  0  0  0
 26 27  2  0  0  0
 27 56  1  0  0  0
 29 53  1  0  0  0
 29 54  1  0  0  0
 29 55  1  0  0  0
M  CHG  3   3   1  25  -1  27   1
M  END
> <s_m_source_file>
/Users/andrea/Development/mcce-charges/epik_inhibitors/output/Sunitinib/Sunitinib-input.mol2

> <i_m_source_file_index>
1

> <r_epik_Ionization_Penalty>
  0.0141

> <r_epik_Ionization_Penalty_Charging>
  0.0140

> <r_epik_Ionization_Penalty_Neutral>
  0.0001

> <r_epik_State_Penalty>
  5.2872

> <i_epik_Tot_Q>
1

$$$$
~{N}-[2-(diethylamino)ethyl]-5-[(~{Z})-(5-fluoro-2-oxo-indolin-3-ylidene)methyl]-2,4-dimethyl-1~{H}-pyrrole-3-carboxamide
                    3D
 Structure written by MMmdl.
 56 58  0  0  1  0            999 V2000
    9.2912  -10.4666   -6.9398 C   0  0  0  0  0  0
    8.1464   -9.8490   -6.2114 C   0  0  0  0  0  0
    7.5182   -8.7975   -7.0104 N   0  3  0  0  0  0
    8.4837   -7.7429   -7.3174 C   0  0  0  0  0  0
    8.9996   -7.1404   -6.0657 C   0  0  0  0  0  0
    6.3811   -8.2522   -6.3186 C   0  0  0  0  0  0
    5.1501   -9.1322   -6.4564 C   0  0  0  0  0  0
    4.0099   -8.5810   -5.7601 N   0  0  0  0  0  0
    3.7324   -8.8805   -4.4358 C   0  0  0  0  0  0
    4.4050   -9.6257   -3.7280 O   0  0  0  0  0  0
    2.5495   -8.2752   -3.8917 C   0  0  0  0  0  0
    2.2534   -6.8952   -3.7695 C   0  0  0  0  0  0
    1.0079   -6.7914   -3.1903 C   0  0  0  0  0  0
    0.5448   -8.0606   -2.9604 N   0  0  0  0  0  0
    1.4759   -8.9728   -3.3836 C   0  0  0  0  0  0
    1.2314  -10.4227   -3.2530 C   0  0  0  0  0  0
    0.1707   -5.6930   -2.8124 C   0  0  0  0  0  0
   -0.7358   -5.1240   -3.6091 C   0  0  0  0  0  0
   -1.6311   -4.0099   -3.3161 C   0  0  0  0  0  0
   -1.8331   -3.2192   -2.2008 C   0  0  0  0  0  0
   -2.8031   -2.2141   -2.2784 C   0  0  0  0  0  0
   -3.5486   -2.0161   -3.4561 C   0  0  0  0  0  0
   -3.3388   -2.8190   -4.5789 C   0  0  0  0  0  0
   -2.3768   -3.8050   -4.4807 C   0  0  0  0  0  0
   -2.0015   -4.7183   -5.4724 N   0  0  0  0  0  0
   -0.9916   -5.5728   -5.0188 C   0  0  0  0  0  0
   -0.4317   -6.4784   -5.6087 O   0  5  0  0  0  0
   -3.0274   -1.4278   -1.2167 F   0  0  0  0  0  0
    3.1212   -5.7734   -4.1865 C   0  0  0  0  0  0
    9.7423  -11.2518   -6.3154 H   0  0  0  0  0  0
   10.0442   -9.6957   -7.1604 H   0  0  0  0  0  0
    8.9317  -10.9080   -7.8810 H   0  0  0  0  0  0
    7.3934  -10.6199   -5.9908 H   0  0  0  0  0  0
    8.5059   -9.4077   -5.2701 H   0  0  0  0  0  0
    9.3243   -8.1692   -7.8846 H   0  0  0  0  0  0
    7.9948   -6.9616   -7.9179 H   0  0  0  0  0  0
    9.7239   -6.3496   -6.3108 H   0  0  0  0  0  0
    9.4937   -7.9159   -5.4620 H   0  0  0  0  0  0
    8.1642   -6.7084   -5.4952 H   0  0  0  0  0  0
    6.6147   -8.1563   -5.2480 H   0  0  0  0  0  0
    6.1411   -7.2614   -6.7317 H   0  0  0  0  0  0
    4.8878   -9.2318   -7.5200 H   0  0  0  0  0  0
    5.3613  -10.1266   -6.0362 H   0  0  0  0  0  0
    3.3248   -7.8967   -6.2820 H   0  0  0  0  0  0
   -0.4425   -8.2107   -2.4991 H   0  0  0  0  0  0
    0.2464  -10.5884   -2.7923 H   0  0  0  0  0  0
    2.0120  -10.8707   -2.6206 H   0  0  0  0  0  0
    1.2536  -10.8894   -4.2488 H   0  0  0  0  0  0
    0.3136   -5.3200   -1.7875 H   0  0  0  0  0  0
   -1.2640   -3.3618   -1.2888 H   0  0  0  0  0  0
   -4.2956   -1.2275   -3.4894 H   0  0  0  0  0  0
   -3.9128   -2.6682   -5.4860 H   0  0  0  0  0  0
    2.6200   -4.8198   -3.9639 H   0  0  0  0  0  0
    3.3154   -5.8421   -5.2670 H   0  0  0  0  0  0
    4.0738   -5.8236   -3.6388 H   0  0  0  0  0  0
    7.1548   -9.2339   -7.9525 H   0  0  0  0  0  0
  1  2  1  0  0  0
  1 30  1  0  0  0
  1 31  1  0  0  0
  1 32  1  0  0  0
  2  3  1  0  0  0
  2 33  1  0  0  0
  2 34  1  0  0  0
  3  4  1  0  0  0
  3  6  1  0  0  0
  3 56  1  0  0  0
  4  5  1  0  0  0
  4 35  1  0  0  0
  4 36  1  0  0  0
  5 37  1  0  0  0
  5 38  1  0  0  0
  5 39  1  0  0  0
  6  7  1  0  0  0
  6 40  1  0  0  0
  6 41  1  0  0  0
  7  8  1  0  0  0
  7 42  1  0  0  0
  7 43  1  0  0  0
  8  9  1  0  0  0
  8 44  1  0  0  0
  9 10  2  0  0  0
  9 11  1  0  0  0
 11 15  2  0  0  0
 11 12  1  0  0  0
 12 13  2  0  0  0
 12 29  1  0  0  0
 13 14  1  0  0  0
 13 17  1  0  0  0
 14 15  1  0  0  0
 14 45  1  0  0  0
 15 16  1  0  0  0
 16 46  1  0  0  0
 16 47  1  0  0  0
 16 48  1  0  0  0
 17 18  2  0  0  0
 17 49  1  0  0  0
 18 26  1  0  0  0
 18 19  1  0  0  0
 19 24  2  0  0  0
 19 20  1  0  0  0
 20 21  2  0  0  0
 20 50  1  0  0  0
 21 22  1  0  0  0
 21 28  1  0  0  0
 22 23  2  0  0  0
 22 51  1  0  0  0
 23 24  1  0  0  0
 23 52  1  0  0  0
 24 25  1  0  0  0
 25 26  2  0  0  0
 26 27  1  0  0  0
 29 53  1  0  0  0
 29 54  1  0  0  0
 29 55  1  0  0  0
M  CHG  2   3   1  27  -1
M  END
> <s_m_source_file>
/Users/andrea/Development/mcce-charges/epik_inhibitors/output/Sunitinib/Sunitinib-input.mol2

> <i_m_source_file_index>
1

> <r_epik_Ionization_Penalty>
  5.3375

> <r_epik_Ionization_Penalty_Charging>
  5.3374

> <r_epik_Ionization_Penalty_Neutral>
  0.0001

> <r_epik_State_Penalty>
  5.7154

> <i_epik_Tot_Q>
0

$$$$
~{N}-[2-(diethylamino)ethyl]-5-[(~{Z})-(5-fluoro-2-oxo-indolin-3-ylidene)methyl]-2,4-dimethyl-1~{H}-pyrrole-3-carboxamide
                    3D
 Structure written by MMmdl.
 56 58  0  0  1  0            999 V2000
    9.2912  -10.4666   -6.9398 C   0  0  0  0  0  0
    8.1464   -9.8490   -6.2114 C   0  0  0  0  0  0
    7.5182   -8.7975   -7.0104 N   0  3  0  0  0  0
    8.4837   -7.7429   -7.3174 C   0  0  0  0  0  0
    8.9996   -7.1404   -6.0657 C   0  0  0  0  0  0
    6.3811   -8.2522   -6.3186 C   0  0  0  0  0  0
    5.1501   -9.1322   -6.4564 C   0  0  0  0  0  0
    4.0099   -8.5810   -5.7601 N   0  0  0  0  0  0
    3.7324   -8.8805   -4.4358 C   0  0  0  0  0  0
    4.4050   -9.6257   -3.7280 O   0  5  0  0  0  0
    2.5495   -8.2752   -3.8917 C   0  0  0  0  0  0
    2.2534   -6.8952   -3.7695 C   0  0  0  0  0  0
    1.0079   -6.7914   -3.1903 C   0  0  0  0  0  0
    0.5448   -8.0606   -2.9604 N   0  0  0  0  0  0
    1.4759   -8.9728   -3.3836 C   0  0  0  0  0  0
    1.2314  -10.4227   -3.2530 C   0  0  0  0  0  0
    0.1707   -5.6930   -2.8124 C   0  0  0  0  0  0
   -0.7358   -5.1240   -3.6091 C   0  0  0  0  0  0
   -1.6311   -4.0099   -3.3161 C   0  0  0  0  0  0
   -1.8331   -3.2192   -2.2008 C   0  0  0  0  0  0
   -2.8031   -2.2141   -2.2784 C   0  0  0  0  0  0
   -3.5486   -2.0161   -3.4561 C   0  0  0  0  0  0
   -3.3388   -2.8190   -4.5789 C   0  0  0  0  0  0
   -2.3768   -3.8050   -4.4807 C   0  0  0  0  0  0
   -2.0015   -4.7183   -5.4724 N   0  0  0  0  0  0
   -0.9916   -5.5728   -5.0188 C   0  0  0  0  0  0
   -0.4317   -6.4784   -5.6087 O   0  0  0  0  0  0
   -3.0274   -1.4278   -1.2167 F   0  0  0  0  0  0
    3.1212   -5.7734   -4.1865 C   0  0  0  0  0  0
    9.7423  -11.2518   -6.3154 H   0  0  0  0  0  0
   10.0442   -9.6957   -7.1604 H   0  0  0  0  0  0
    8.9317  -10.9080   -7.8810 H   0  0  0  0  0  0
    7.3934  -10.6199   -5.9908 H   0  0  0  0  0  0
    8.5059   -9.4077   -5.2701 H   0  0  0  0  0  0
    9.3243   -8.1692   -7.8846 H   0  0  0  0  0  0
    7.9948   -6.9616   -7.9179 H   0  0  0  0  0  0
    9.7239   -6.3496   -6.3108 H   0  0  0  0  0  0
    9.4937   -7.9159   -5.4620 H   0  0  0  0  0  0
    8.1642   -6.7084   -5.4952 H   0  0  0  0  0  0
    6.6147   -8.1563   -5.2480 H   0  0  0  0  0  0
    6.1411   -7.2614   -6.7317 H   0  0  0  0  0  0
    4.8878   -9.2318   -7.5200 H   0  0  0  0  0  0
    5.3613  -10.1266   -6.0362 H   0  0  0  0  0  0
   -0.4425   -8.2107   -2.4991 H   0  0  0  0  0  0
    0.2464  -10.5884   -2.7923 H   0  0  0  0  0  0
    2.0120  -10.8707   -2.6206 H   0  0  0  0  0  0
    1.2536  -10.8894   -4.2488 H   0  0  0  0  0  0
    0.3136   -5.3200   -1.7875 H   0  0  0  0  0  0
   -1.2640   -3.3618   -1.2888 H   0  0  0  0  0  0
   -4.2956   -1.2275   -3.4894 H   0  0  0  0  0  0
   -3.9128   -2.6682   -5.4860 H   0  0  0  0  0  0
   -2.4928   -4.6945   -6.4563 H   0  0  0  0  0  0
    2.6200   -4.8198   -3.9639 H   0  0  0  0  0  0
    3.3154   -5.8421   -5.2670 H   0  0  0  0  0  0
    4.0738   -5.8236   -3.6388 H   0  0  0  0  0  0
    7.1548   -9.2339   -7.9525 H   0  0  0  0  0  0
  1  2  1  0  0  0
  1 30  1  0  0  0
  1 31  1  0  0  0
  1 32  1  0  0  0
  2  3  1  0  0  0
  2 33  1  0  0  0
  2 34  1  0  0  0
  3  4  1  0  0  0
  3  6  1  0  0  0
  3 56  1  0  0  0
  4  5  1  0  0  0
  4 35  1  0  0  0
  4 36  1  0  0  0
  5 37  1  0  0  0
  5 38  1  0  0  0
  5 39  1  0  0  0
  6  7  1  0  0  0
  6 40  1  0  0  0
  6 41  1  0  0  0
  7  8  1  0  0  0
  7 42  1  0  0  0
  7 43  1  0  0  0
  8  9  2  0  0  0
  9 10  1  0  0  0
  9 11  1  0  0  0
 11 15  2  0  0  0
 11 12  1  0  0  0
 12 13  2  0  0  0
 12 29  1  0  0  0
 13 14  1  0  0  0
 13 17  1  0  0  0
 14 15  1  0  0  0
 14 44  1  0  0  0
 15 16  1  0  0  0
 16 45  1  0  0  0
 16 46  1  0  0  0
 16 47  1  0  0  0
 17 18  2  0  0  0
 17 48  1  0  0  0
 18 26  1  0  0  0
 18 19  1  0  0  0
 19 24  2  0  0  0
 19 20  1  0  0  0
 20 21  2  0  0  0
 20 49  1  0  0  0
 21 22  1  0  0  0
 21 28  1  0  0  0
 22 23  2  0  0  0
 22 50  1  0  0  0
 23 24  1  0  0  0
 23 51  1  0  0  0
 24 25  1  0  0  0
 25 26  1  0  0  0
 25 52  1  0  0  0
 26 27  2  0  0  0
 29 53  1  0  0  0
 29 54  1  0  0  0
 29 55  1  0  0  0
M  CHG  2   3   1  10  -1
M  END
> <s_m_source_file>
/Users/andrea/Development/mcce-charges/epik_inhibitors/output/Sunitinib/Sunitinib-input.mol2

> <i_m_source_file_index>
1

> <r_epik_Ionization_Penalty>
  5.3146

> <r_epik_Ionization_Penalty_Charging>
  5.3146

> <r_epik_Ionization_Penalty_Neutral>
  0.0001

> <r_epik_State_Penalty>
  5.8883

> <i_epik_Tot_Q>
0

$$$$
~{N}-[2-(diethylamino)ethyl]-5-[(~{Z})-(5-fluoro-2-oxo-indolin-3-ylidene)methyl]-2,4-dimethyl-1~{H}-pyrrole-3-carboxamide
                    3D
 Structure written by MMmdl.
 56 58  0  0  1  0            999 V2000
    9.2912  -10.4666   -6.9398 C   0  0  0  0  0  0
    8.1464   -9.8490   -6.2114 C   0  0  0  0  0  0
    7.5182   -8.7975   -7.0104 N   0  0  0  0  0  0
    8.4837   -7.7429   -7.3174 C   0  0  0  0  0  0
    8.9996   -7.1404   -6.0657 C   0  0  0  0  0  0
    6.3811   -8.2522   -6.3186 C   0  0  0  0  0  0
    5.1501   -9.1322   -6.4564 C   0  0  0  0  0  0
    4.0099   -8.5810   -5.7601 N   0  0  0  0  0  0
    3.7324   -8.8805   -4.4358 C   0  0  0  0  0  0
    4.4050   -9.6257   -3.7280 O   0  0  0  0  0  0
    2.5495   -8.2752   -3.8917 C   0  0  0  0  0  0
    2.2534   -6.8952   -3.7695 C   0  0  0  0  0  0
    1.0079   -6.7914   -3.1903 C   0  0  0  0  0  0
    0.5448   -8.0606   -2.9604 N   0  0  0  0  0  0
    1.4759   -8.9728   -3.3836 C   0  0  0  0  0  0
    1.2314  -10.4227   -3.2530 C   0  0  0  0  0  0
    0.1707   -5.6930   -2.8124 C   0  0  0  0  0  0
   -0.7358   -5.1240   -3.6091 C   0  0  0  0  0  0
   -1.6311   -4.0099   -3.3161 C   0  0  0  0  0  0
   -1.8331   -3.2192   -2.2008 C   0  0  0  0  0  0
   -2.8031   -2.2141   -2.2784 C   0  0  0  0  0  0
   -3.5486   -2.0161   -3.4561 C   0  0  0  0  0  0
   -3.3388   -2.8190   -4.5789 C   0  0  0  0  0  0
   -2.3768   -3.8050   -4.4807 C   0  0  0  0  0  0
   -2.0015   -4.7183   -5.4724 N   0  5  0  0  0  0
   -0.9916   -5.5728   -5.0188 C   0  0  0  0  0  0
   -0.4317   -6.4784   -5.6087 O   0  3  0  0  0  0
   -3.0274   -1.4278   -1.2167 F   0  0  0  0  0  0
    3.1212   -5.7734   -4.1865 C   0  0  0  0  0  0
    9.7423  -11.2518   -6.3154 H   0  0  0  0  0  0
   10.0442   -9.6957   -7.1604 H   0  0  0  0  0  0
    8.9317  -10.9080   -7.8810 H   0  0  0  0  0  0
    7.3934  -10.6199   -5.9908 H   0  0  0  0  0  0
    8.5059   -9.4077   -5.2701 H   0  0  0  0  0  0
    9.3243   -8.1692   -7.8846 H   0  0  0  0  0  0
    7.9948   -6.9616   -7.9179 H   0  0  0  0  0  0
    9.7239   -6.3496   -6.3108 H   0  0  0  0  0  0
    9.4937   -7.9159   -5.4620 H   0  0  0  0  0  0
    8.1642   -6.7084   -5.4952 H   0  0  0  0  0  0
    6.6147   -8.1563   -5.2480 H   0  0  0  0  0  0
    6.1411   -7.2614   -6.7317 H   0  0  0  0  0  0
    4.8878   -9.2318   -7.5200 H   0  0  0  0  0  0
    5.3613  -10.1266   -6.0362 H   0  0  0  0  0  0
    3.3248   -7.8967   -6.2820 H   0  0  0  0  0  0
   -0.4425   -8.2107   -2.4991 H   0  0  0  0  0  0
    0.2464  -10.5884   -2.7923 H   0  0  0  0  0  0
    2.0120  -10.8707   -2.6206 H   0  0  0  0  0  0
    1.2536  -10.8894   -4.2488 H   0  0  0  0  0  0
    0.3136   -5.3200   -1.7875 H   0  0  0  0  0  0
   -1.2640   -3.3618   -1.2888 H   0  0  0  0  0  0
   -4.2956   -1.2275   -3.4894 H   0  0  0  0  0  0
   -3.9128   -2.6682   -5.4860 H   0  0  0  0  0  0
    2.6200   -4.8198   -3.9639 H   0  0  0  0  0  0
    3.3154   -5.8421   -5.2670 H   0  0  0  0  0  0
    4.0738   -5.8236   -3.6388 H   0  0  0  0  0  0
   -0.7093   -6.7130   -6.6469 H   0  0  0  0  0  0
  1  2  1  0  0  0
  1 30  1  0  0  0
  1 31  1  0  0  0
  1 32  1  0  0  0
  2  3  1  0  0  0
  2 33  1  0  0  0
  2 34  1  0  0  0
  3  4  1  0  0  0
  3  6  1  0  0  0
  4  5  1  0  0  0
  4 35  1  0  0  0
  4 36  1  0  0  0
  5 37  1  0  0  0
  5 38  1  0  0  0
  5 39  1  0  0  0
  6  7  1  0  0  0
  6 40  1  0  0  0
  6 41  1  0  0  0
  7  8  1  0  0  0
  7 42  1  0  0  0
  7 43  1  0  0  0
  8  9  1  0  0  0
  8 44  1  0  0  0
  9 10  2  0  0  0
  9 11  1  0  0  0
 11 15  2  0  0  0
 11 12  1  0  0  0
 12 13  2  0  0  0
 12 29  1  0  0  0
 13 14  1  0  0  0
 13 17  1  0  0  0
 14 15  1  0  0  0
 14 45  1  0  0  0
 15 16  1  0  0  0
 16 46  1  0  0  0
 16 47  1  0  0  0
 16 48  1  0  0  0
 17 18  2  0  0  0
 17 49  1  0  0  0
 18 26  1  0  0  0
 18 19  1  0  0  0
 19 24  2  0  0  0
 19 20  1  0  0  0
 20 21  2  0  0  0
 20 50  1  0  0  0
 21 22  1  0  0  0
 21 28  1  0  0  0
 22 23  2  0  0  0
 22 51  1  0  0  0
 23 24  1  0  0  0
 23 52  1  0  0  0
 24 25  1  0  0  0
 25 26  1  0  0  0
 26 27  2  0  0  0
 27 56  1  0  0  0
 29 53  1  0  0  0
 29 54  1  0  0  0
 29 55  1  0  0  0
M  CHG  2  25  -1  27   1
M  END
> <s_m_source_file>
/Users/andrea/Development/mcce-charges/epik_inhibitors/output/Sunitinib/Sunitinib-input.mol2

> <i_m_source_file_index>
1

> <r_epik_Ionization_Penalty>
  2.4177

> <r_epik_Ionization_Penalty_Charging>
  0.0038

> <r_epik_Ionization_Penalty_Neutral>
  2.4138

> <r_epik_State_Penalty>
  7.8406

> <i_epik_Tot_Q>
0

$$$$
~{N}-[2-(diethylamino)ethyl]-5-[(~{Z})-(5-fluoro-2-oxo-indolin-3-ylidene)methyl]-2,4-dimethyl-1~{H}-pyrrole-3-carboxamide
                    3D
 Structure written by MMmdl.
 55 57  0  0  1  0            999 V2000
    9.2912  -10.4666   -6.9398 C   0  0  0  0  0  0
    8.1464   -9.8490   -6.2114 C   0  0  0  0  0  0
    7.5182   -8.7975   -7.0104 N   0  0  0  0  0  0
    8.4837   -7.7429   -7.3174 C   0  0  0  0  0  0
    8.9996   -7.1404   -6.0657 C   0  0  0  0  0  0
    6.3811   -8.2522   -6.3186 C   0  0  0  0  0  0
    5.1501   -9.1322   -6.4564 C   0  0  0  0  0  0
    4.0099   -8.5810   -5.7601 N   0  0  0  0  0  0
    3.7324   -8.8805   -4.4358 C   0  0  0  0  0  0
    4.4050   -9.6257   -3.7280 O   0  0  0  0  0  0
    2.5495   -8.2752   -3.8917 C   0  0  0  0  0  0
    2.2534   -6.8952   -3.7695 C   0  0  0  0  0  0
    1.0079   -6.7914   -3.1903 C   0  0  0  0  0  0
    0.5448   -8.0606   -2.9604 N   0  0  0  0  0  0
    1.4759   -8.9728   -3.3836 C   0  0  0  0  0  0
    1.2314  -10.4227   -3.2530 C   0  0  0  0  0  0
    0.1707   -5.6930   -2.8124 C   0  0  0  0  0  0
   -0.7358   -5.1240   -3.6091 C   0  0  0  0  0  0
   -1.6311   -4.0099   -3.3161 C   0  0  0  0  0  0
   -1.8331   -3.2192   -2.2008 C   0  0  0  0  0  0
   -2.8031   -2.2141   -2.2784 C   0  0  0  0  0  0
   -3.5486   -2.0161   -3.4561 C   0  0  0  0  0  0
   -3.3388   -2.8190   -4.5789 C   0  0  0  0  0  0
   -2.3768   -3.8050   -4.4807 C   0  0  0  0  0  0
   -2.0015   -4.7183   -5.4724 N   0  0  0  0  0  0
   -0.9916   -5.5728   -5.0188 C   0  0  0  0  0  0
   -0.4317   -6.4784   -5.6087 O   0  5  0  0  0  0
   -3.0274   -1.4278   -1.2167 F   0  0  0  0  0  0
    3.1212   -5.7734   -4.1865 C   0  0  0  0  0  0
    9.7423  -11.2518   -6.3154 H   0  0  0  0  0  0
   10.0442   -9.6957   -7.1604 H   0  0  0  0  0  0
    8.9317  -10.9080   -7.8810 H   0  0  0  0  0  0
    7.3934  -10.6199   -5.9908 H   0  0  0  0  0  0
    8.5059   -9.4077   -5.2701 H   0  0  0  0  0  0
    9.3243   -8.1692   -7.8846 H   0  0  0  0  0  0
    7.9948   -6.9616   -7.9179 H   0  0  0  0  0  0
    9.7239   -6.3496   -6.3108 H   0  0  0  0  0  0
    9.4937   -7.9159   -5.4620 H   0  0  0  0  0  0
    8.1642   -6.7084   -5.4952 H   0  0  0  0  0  0
    6.6147   -8.1563   -5.2480 H   0  0  0  0  0  0
    6.1411   -7.2614   -6.7317 H   0  0  0  0  0  0
    4.8878   -9.2318   -7.5200 H   0  0  0  0  0  0
    5.3613  -10.1266   -6.0362 H   0  0  0  0  0  0
    3.3248   -7.8967   -6.2820 H   0  0  0  0  0  0
   -0.4425   -8.2107   -2.4991 H   0  0  0  0  0  0
    0.2464  -10.5884   -2.7923 H   0  0  0  0  0  0
    2.0120  -10.8707   -2.6206 H   0  0  0  0  0  0
    1.2536  -10.8894   -4.2488 H   0  0  0  0  0  0
    0.3136   -5.3200   -1.7875 H   0  0  0  0  0  0
   -1.2640   -3.3618   -1.2888 H   0  0  0  0  0  0
   -4.2956   -1.2275   -3.4894 H   0  0  0  0  0  0
   -3.9128   -2.6682   -5.4860 H   0  0  0  0  0  0
    2.6200   -4.8198   -3.9639 H   0  0  0  0  0  0
    3.3154   -5.8421   -5.2670 H   0  0  0  0  0  0
    4.0738   -5.8236   -3.6388 H   0  0  0  0  0  0
  1  2  1  0  0  0
  1 30  1  0  0  0
  1 31  1  0  0  0
  1 32  1  0  0  0
  2  3  1  0  0  0
  2 33  1  0  0  0
  2 34  1  0  0  0
  3  4  1  0  0  0
  3  6  1  0  0  0
  4  5  1  0  0  0
  4 35  1  0  0  0
  4 36  1  0  0  0
  5 37  1  0  0  0
  5 38  1  0  0  0
  5 39  1  0  0  0
  6  7  1  0  0  0
  6 40  1  0  0  0
  6 41  1  0  0  0
  7  8  1  0  0  0
  7 42  1  0  0  0
  7 43  1  0  0  0
  8  9  1  0  0  0
  8 44  1  0  0  0
  9 10  2  0  0  0
  9 11  1  0  0  0
 11 15  2  0  0  0
 11 12  1  0  0  0
 12 13  2  0  0  0
 12 29  1  0  0  0
 13 14  1  0  0  0
 13 17  1  0  0  0
 14 15  1  0  0  0
 14 45  1  0  0  0
 15 16  1  0  0  0
 16 46  1  0  0  0
 16 47  1  0  0  0
 16 48  1  0  0  0
 17 18  2  0  0  0
 17 49  1  0  0  0
 18 26  1  0  0  0
 18 19  1  0  0  0
 19 24  2  0  0  0
 19 20  1  0  0  0
 20 21  2  0  0  0
 20 50  1  0  0  0
 21 22  1  0  0  0
 21 28  1  0  0  0
 22 23  2  0  0  0
 22 51  1  0  0  0
 23 24  1  0  0  0
 23 52  1  0  0  0
 24 25  1  0  0  0
 25 26  2  0  0  0
 26 27  1  0  0  0
 29 53  1  0  0  0
 29 54  1  0  0  0
 29 55  1  0  0  0
M  CHG  1  27  -1
M  END
> <s_m_source_file>
/Users/andrea/Development/mcce-charges/epik_inhibitors/output/Sunitinib/Sunitinib-input.mol2

> <i_m_source_file_index>
1

> <r_epik_Ionization_Penalty>
  7.7411

> <r_epik_Ionization_Penalty_Charging>
  5.3272

> <r_epik_Ionization_Penalty_Neutral>
  2.4138

> <r_epik_State_Penalty>
  8.2066

> <i_epik_Tot_Q>
-1

$$$$
~{N}-[2-(diethylamino)ethyl]-5-[(~{Z})-(5-fluoro-2-oxo-indolin-3-ylidene)methyl]-2,4-dimethyl-1~{H}-pyrrole-3-carboxamide
                    3D
 Structure written by MMmdl.
 56 58  0  0  1  0            999 V2000
    9.2912  -10.4666   -6.9398 C   0  0  0  0  0  0
    8.1464   -9.8490   -6.2114 C   0  0  0  0  0  0
    7.5182   -8.7975   -7.0104 N   0  3  0  0  0  0
    8.4837   -7.7429   -7.3174 C   0  0  0  0  0  0
    8.9996   -7.1404   -6.0657 C   0  0  0  0  0  0
    6.3811   -8.2522   -6.3186 C   0  0  0  0  0  0
    5.1501   -9.1322   -6.4564 C   0  0  0  0  0  0
    4.0099   -8.5810   -5.7601 N   0  0  0  0  0  0
    3.7324   -8.8805   -4.4358 C   0  0  0  0  0  0
    4.4050   -9.6257   -3.7280 O   0  0  0  0  0  0
    2.5495   -8.2752   -3.8917 C   0  0  0  0  0  0
    2.2534   -6.8952   -3.7695 C   0  0  0  0  0  0
    1.0079   -6.7914   -3.1903 C   0  0  0  0  0  0
    0.5448   -8.0606   -2.9604 N   0  5  0  0  0  0
    1.4759   -8.9728   -3.3836 C   0  0  0  0  0  0
    1.2314  -10.4227   -3.2530 C   0  0  0  0  0  0
    0.1707   -5.6930   -2.8124 C   0  0  0  0  0  0
   -0.7358   -5.1240   -3.6091 C   0  0  0  0  0  0
   -1.6311   -4.0099   -3.3161 C   0  0  0  0  0  0
   -1.8331   -3.2192   -2.2008 C   0  0  0  0  0  0
   -2.8031   -2.2141   -2.2784 C   0  0  0  0  0  0
   -3.5486   -2.0161   -3.4561 C   0  0  0  0  0  0
   -3.3388   -2.8190   -4.5789 C   0  0  0  0  0  0
   -2.3768   -3.8050   -4.4807 C   0  0  0  0  0  0
   -2.0015   -4.7183   -5.4724 N   0  0  0  0  0  0
   -0.9916   -5.5728   -5.0188 C   0  0  0  0  0  0
   -0.4317   -6.4784   -5.6087 O   0  0  0  0  0  0
   -3.0274   -1.4278   -1.2167 F   0  0  0  0  0  0
    3.1212   -5.7734   -4.1865 C   0  0  0  0  0  0
    9.7423  -11.2518   -6.3154 H   0  0  0  0  0  0
   10.0442   -9.6957   -7.1604 H   0  0  0  0  0  0
    8.9317  -10.9080   -7.8810 H   0  0  0  0  0  0
    7.3934  -10.6199   -5.9908 H   0  0  0  0  0  0
    8.5059   -9.4077   -5.2701 H   0  0  0  0  0  0
    9.3243   -8.1692   -7.8846 H   0  0  0  0  0  0
    7.9948   -6.9616   -7.9179 H   0  0  0  0  0  0
    9.7239   -6.3496   -6.3108 H   0  0  0  0  0  0
    9.4937   -7.9159   -5.4620 H   0  0  0  0  0  0
    8.1642   -6.7084   -5.4952 H   0  0  0  0  0  0
    6.6147   -8.1563   -5.2480 H   0  0  0  0  0  0
    6.1411   -7.2614   -6.7317 H   0  0  0  0  0  0
    4.8878   -9.2318   -7.5200 H   0  0  0  0  0  0
    5.3613  -10.1266   -6.0362 H   0  0  0  0  0  0
    3.3248   -7.8967   -6.2820 H   0  0  0  0  0  0
    0.2464  -10.5884   -2.7923 H   0  0  0  0  0  0
    2.0120  -10.8707   -2.6206 H   0  0  0  0  0  0
    1.2536  -10.8894   -4.2488 H   0  0  0  0  0  0
    0.3136   -5.3200   -1.7875 H   0  0  0  0  0  0
   -1.2640   -3.3618   -1.2888 H   0  0  0  0  0  0
   -4.2956   -1.2275   -3.4894 H   0  0  0  0  0  0
   -3.9128   -2.6682   -5.4860 H   0  0  0  0  0  0
   -2.4928   -4.6945   -6.4563 H   0  0  0  0  0  0
    2.6200   -4.8198   -3.9639 H   0  0  0  0  0  0
    3.3154   -5.8421   -5.2670 H   0  0  0  0  0  0
    4.0738   -5.8236   -3.6388 H   0  0  0  0  0  0
    7.1548   -9.2339   -7.9525 H   0  0  0  0  0  0
  1  2  1  0  0  0
  1 30  1  0  0  0
  1 31  1  0  0  0
  1 32  1  0  0  0
  2  3  1  0  0  0
  2 33  1  0  0  0
  2 34  1  0  0  0
  3  4  1  0  0  0
  3  6  1  0  0  0
  3 56  1  0  0  0
  4  5  1  0  0  0
  4 35  1  0  0  0
  4 36  1  0  0  0
  5 37  1  0  0  0
  5 38  1  0  0  0
  5 39  1  0  0  0
  6  7  1  0  0  0
  6 40  1  0  0  0
  6 41  1  0  0  0
  7  8  1  0  0  0
  7 42  1  0  0  0
  7 43  1  0  0  0
  8  9  1  0  0  0
  8 44  1  0  0  0
  9 10  2  0  0  0
  9 11  1  0  0  0
 11 15  2  0  0  0
 11 12  1  0  0  0
 12 13  2  0  0  0
 12 29  1  0  0  0
 13 14  1  0  0  0
 13 17  1  0  0  0
 14 15  1  0  0  0
 15 16  1  0  0  0
 16 45  1  0  0  0
 16 46  1  0  0  0
 16 47  1  0  0  0
 17 18  2  0  0  0
 17 48  1  0  0  0
 18 26  1  0  0  0
 18 19  1  0  0  0
 19 24  2  0  0  0
 19 20  1  0  0  0
 20 21  2  0  0  0
 20 49  1  0  0  0
 21 22  1  0  0  0
 21 28  1  0  0  0
 22 23  2  0  0  0
 22 50  1  0  0  0
 23 24  1  0  0  0
 23 51  1  0  0  0
 24 25  1  0  0  0
 25 26  1  0  0  0
 25 52  1  0  0  0
 26 27  2  0  0  0
 29 53  1  0  0  0
 29 54  1  0  0  0
 29 55  1  0  0  0
M  CHG  2   3   1  14  -1
M  END
> <s_m_source_file>
/Users/andrea/Development/mcce-charges/epik_inhibitors/output/Sunitinib/Sunitinib-input.mol2

> <i_m_source_file_index>
1

> <r_epik_Ionization_Penalty>
  8.6485

> <r_epik_Ionization_Penalty_Charging>
  8.6483

> <r_epik_Ionization_Penalty_Neutral>
  0.0001

> <r_epik_State_Penalty>
  9.1675

> <i_epik_Tot_Q>
0

$$$$
~{N}-[2-(diethylamino)ethyl]-5-[(~{Z})-(5-fluoro-2-oxo-indolin-3-ylidene)methyl]-2,4-dimethyl-1~{H}-pyrrole-3-carboxamide
                    3D
 Structure written by MMmdl.
 55 57  0  0  1  0            999 V2000
    9.2912  -10.4666   -6.9398 C   0  0  0  0  0  0
    8.1464   -9.8490   -6.2114 C   0  0  0  0  0  0
    7.5182   -8.7975   -7.0104 N   0  0  0  0  0  0
    8.4837   -7.7429   -7.3174 C   0  0  0  0  0  0
    8.9996   -7.1404   -6.0657 C   0  0  0  0  0  0
    6.3811   -8.2522   -6.3186 C   0  0  0  0  0  0
    5.1501   -9.1322   -6.4564 C   0  0  0  0  0  0
    4.0099   -8.5810   -5.7601 N   0  0  0  0  0  0
    3.7324   -8.8805   -4.4358 C   0  0  0  0  0  0
    4.4050   -9.6257   -3.7280 O   0  5  0  0  0  0
    2.5495   -8.2752   -3.8917 C   0  0  0  0  0  0
    2.2534   -6.8952   -3.7695 C   0  0  0  0  0  0
    1.0079   -6.7914   -3.1903 C   0  0  0  0  0  0
    0.5448   -8.0606   -2.9604 N   0  0  0  0  0  0
    1.4759   -8.9728   -3.3836 C   0  0  0  0  0  0
    1.2314  -10.4227   -3.2530 C   0  0  0  0  0  0
    0.1707   -5.6930   -2.8124 C   0  0  0  0  0  0
   -0.7358   -5.1240   -3.6091 C   0  0  0  0  0  0
   -1.6311   -4.0099   -3.3161 C   0  0  0  0  0  0
   -1.8331   -3.2192   -2.2008 C   0  0  0  0  0  0
   -2.8031   -2.2141   -2.2784 C   0  0  0  0  0  0
   -3.5486   -2.0161   -3.4561 C   0  0  0  0  0  0
   -3.3388   -2.8190   -4.5789 C   0  0  0  0  0  0
   -2.3768   -3.8050   -4.4807 C   0  0  0  0  0  0
   -2.0015   -4.7183   -5.4724 N   0  0  0  0  0  0
   -0.9916   -5.5728   -5.0188 C   0  0  0  0  0  0
   -0.4317   -6.4784   -5.6087 O   0  0  0  0  0  0
   -3.0274   -1.4278   -1.2167 F   0  0  0  0  0  0
    3.1212   -5.7734   -4.1865 C   0  0  0  0  0  0
    9.7423  -11.2518   -6.3154 H   0  0  0  0  0  0
   10.0442   -9.6957   -7.1604 H   0  0  0  0  0  0
    8.9317  -10.9080   -7.8810 H   0  0  0  0  0  0
    7.3934  -10.6199   -5.9908 H   0  0  0  0  0  0
    8.5059   -9.4077   -5.2701 H   0  0  0  0  0  0
    9.3243   -8.1692   -7.8846 H   0  0  0  0  0  0
    7.9948   -6.9616   -7.9179 H   0  0  0  0  0  0
    9.7239   -6.3496   -6.3108 H   0  0  0  0  0  0
    9.4937   -7.9159   -5.4620 H   0  0  0  0  0  0
    8.1642   -6.7084   -5.4952 H   0  0  0  0  0  0
    6.6147   -8.1563   -5.2480 H   0  0  0  0  0  0
    6.1411   -7.2614   -6.7317 H   0  0  0  0  0  0
    4.8878   -9.2318   -7.5200 H   0  0  0  0  0  0
    5.3613  -10.1266   -6.0362 H   0  0  0  0  0  0
   -0.4425   -8.2107   -2.4991 H   0  0  0  0  0  0
    0.2464  -10.5884   -2.7923 H   0  0  0  0  0  0
    2.0120  -10.8707   -2.6206 H   0  0  0  0  0  0
    1.2536  -10.8894   -4.2488 H   0  0  0  0  0  0
    0.3136   -5.3200   -1.7875 H   0  0  0  0  0  0
   -1.2640   -3.3618   -1.2888 H   0  0  0  0  0  0
   -4.2956   -1.2275   -3.4894 H   0  0  0  0  0  0
   -3.9128   -2.6682   -5.4860 H   0  0  0  0  0  0
   -2.4928   -4.6945   -6.4563 H   0  0  0  0  0  0
    2.6200   -4.8198   -3.9639 H   0  0  0  0  0  0
    3.3154   -5.8421   -5.2670 H   0  0  0  0  0  0
    4.0738   -5.8236   -3.6388 H   0  0  0  0  0  0
  1  2  1  0  0  0
  1 30  1  0  0  0
  1 31  1  0  0  0
  1 32  1  0  0  0
  2  3  1  0  0  0
  2 33  1  0  0  0
  2 34  1  0  0  0
  3  4  1  0  0  0
  3  6  1  0  0  0
  4  5  1  0  0  0
  4 35  1  0  0  0
  4 36  1  0  0  0
  5 37  1  0  0  0
  5 38  1  0  0  0
  5 39  1  0  0  0
  6  7  1  0  0  0
  6 40  1  0  0  0
  6 41  1  0  0  0
  7  8  1  0  0  0
  7 42  1  0  0  0
  7 43  1  0  0  0
  8  9  2  0  0  0
  9 10  1  0  0  0
  9 11  1  0  0  0
 11 15  2  0  0  0
 11 12  1  0  0  0
 12 13  2  0  0  0
 12 29  1  0  0  0
 13 14  1  0  0  0
 13 17  1  0  0  0
 14 15  1  0  0  0
 14 44  1  0  0  0
 15 16  1  0  0  0
 16 45  1  0  0  0
 16 46  1  0  0  0
 16 47  1  0  0  0
 17 18  2  0  0  0
 17 48  1  0  0  0
 18 26  1  0  0  0
 18 19  1  0  0  0
 19 24  2  0  0  0
 19 20  1  0  0  0
 20 21  2  0  0  0
 20 49  1  0  0  0
 21 22  1  0  0  0
 21 28  1  0  0  0
 22 23  2  0  0  0
 22 50  1  0  0  0
 23 24  1  0  0  0
 23 51  1  0  0  0
 24 25  1  0  0  0
 25 26  1  0  0  0
 25 52  1  0  0  0
 26 27  2  0  0  0
 29 53  1  0  0  0
 29 54  1  0  0  0
 29 55  1  0  0  0
M  CHG  1  10  -1
M  END
> <s_m_source_file>
/Users/andrea/Development/mcce-charges/epik_inhibitors/output/Sunitinib/Sunitinib-input.mol2

> <i_m_source_file_index>
1

> <r_epik_Ionization_Penalty>
  9.6513

> <r_epik_Ionization_Penalty_Charging>
  6.5399

> <r_epik_Ionization_Penalty_Neutral>
  3.1114

> <r_epik_State_Penalty>
  9.3160

> <i_epik_Tot_Q>
-1

$$$$
~{N}-[2-(diethylamino)ethyl]-5-[(~{Z})-(5-fluoro-2-oxo-indolin-3-ylidene)methyl]-2,4-dimethyl-1~{H}-pyrrole-3-carboxamide
                    3D
 Structure written by MMmdl.
 56 58  0  0  1  0            999 V2000
    9.2912  -10.4666   -6.9398 C   0  0  0  0  0  0
    8.1464   -9.8490   -6.2114 C   0  0  0  0  0  0
    7.5182   -8.7975   -7.0104 N   0  3  0  0  0  0
    8.4837   -7.7429   -7.3174 C   0  0  0  0  0  0
    8.9996   -7.1404   -6.0657 C   0  0  0  0  0  0
    6.3811   -8.2522   -6.3186 C   0  0  0  0  0  0
    5.1501   -9.1322   -6.4564 C   0  0  0  0  0  0
    4.0099   -8.5810   -5.7601 N   0  0  0  0  0  0
    3.7324   -8.8805   -4.4358 C   0  0  0  0  0  0
    4.4050   -9.6257   -3.7280 O   0  5  0  0  0  0
    2.5495   -8.2752   -3.8917 C   0  0  0  0  0  0
    2.2534   -6.8952   -3.7695 C   0  0  0  0  0  0
    1.0079   -6.7914   -3.1903 C   0  0  0  0  0  0
    0.5448   -8.0606   -2.9604 N   0  0  0  0  0  0
    1.4759   -8.9728   -3.3836 C   0  0  0  0  0  0
    1.2314  -10.4227   -3.2530 C   0  0  0  0  0  0
    0.1707   -5.6930   -2.8124 C   0  0  0  0  0  0
   -0.7358   -5.1240   -3.6091 C   0  0  0  0  0  0
   -1.6311   -4.0099   -3.3161 C   0  0  0  0  0  0
   -1.8331   -3.2192   -2.2008 C   0  0  0  0  0  0
   -2.8031   -2.2141   -2.2784 C   0  0  0  0  0  0
   -3.5486   -2.0161   -3.4561 C   0  0  0  0  0  0
   -3.3388   -2.8190   -4.5789 C   0  0  0  0  0  0
   -2.3768   -3.8050   -4.4807 C   0  0  0  0  0  0
   -2.0015   -4.7183   -5.4724 N   0  5  0  0  0  0
   -0.9916   -5.5728   -5.0188 C   0  0  0  0  0  0
   -0.4317   -6.4784   -5.6087 O   0  3  0  0  0  0
   -3.0274   -1.4278   -1.2167 F   0  0  0  0  0  0
    3.1212   -5.7734   -4.1865 C   0  0  0  0  0  0
    9.7423  -11.2518   -6.3154 H   0  0  0  0  0  0
   10.0442   -9.6957   -7.1604 H   0  0  0  0  0  0
    8.9317  -10.9080   -7.8810 H   0  0  0  0  0  0
    7.3934  -10.6199   -5.9908 H   0  0  0  0  0  0
    8.5059   -9.4077   -5.2701 H   0  0  0  0  0  0
    9.3243   -8.1692   -7.8846 H   0  0  0  0  0  0
    7.9948   -6.9616   -7.9179 H   0  0  0  0  0  0
    9.7239   -6.3496   -6.3108 H   0  0  0  0  0  0
    9.4937   -7.9159   -5.4620 H   0  0  0  0  0  0
    8.1642   -6.7084   -5.4952 H   0  0  0  0  0  0
    6.6147   -8.1563   -5.2480 H   0  0  0  0  0  0
    6.1411   -7.2614   -6.7317 H   0  0  0  0  0  0
    4.8878   -9.2318   -7.5200 H   0  0  0  0  0  0
    5.3613  -10.1266   -6.0362 H   0  0  0  0  0  0
   -0.4425   -8.2107   -2.4991 H   0  0  0  0  0  0
    0.2464  -10.5884   -2.7923 H   0  0  0  0  0  0
    2.0120  -10.8707   -2.6206 H   0  0  0  0  0  0
    1.2536  -10.8894   -4.2488 H   0  0  0  0  0  0
    0.3136   -5.3200   -1.7875 H   0  0  0  0  0  0
   -1.2640   -3.3618   -1.2888 H   0  0  0  0  0  0
   -4.2956   -1.2275   -3.4894 H   0  0  0  0  0  0
   -3.9128   -2.6682   -5.4860 H   0  0  0  0  0  0
    2.6200   -4.8198   -3.9639 H   0  0  0  0  0  0
    3.3154   -5.8421   -5.2670 H   0  0  0  0  0  0
    4.0738   -5.8236   -3.6388 H   0  0  0  0  0  0
   -0.7093   -6.7130   -6.6469 H   0  0  0  0  0  0
    7.1548   -9.2339   -7.9525 H   0  0  0  0  0  0
  1  2  1  0  0  0
  1 30  1  0  0  0
  1 31  1  0  0  0
  1 32  1  0  0  0
  2  3  1  0  0  0
  2 33  1  0  0  0
  2 34  1  0  0  0
  3  4  1  0  0  0
  3  6  1  0  0  0
  3 56  1  0  0  0
  4  5  1  0  0  0
  4 35  1  0  0  0
  4 36  1  0  0  0
  5 37  1  0  0  0
  5 38  1  0  0  0
  5 39  1  0  0  0
  6  7  1  0  0  0
  6 40  1  0  0  0
  6 41  1  0  0  0
  7  8  1  0  0  0
  7 42  1  0  0  0
  7 43  1  0  0  0
  8  9  2  0  0  0
  9 10  1  0  0  0
  9 11  1  0  0  0
 11 15  2  0  0  0
 11 12  1  0  0  0
 12 13  2  0  0  0
 12 29  1  0  0  0
 13 14  1  0  0  0
 13 17  1  0  0  0
 14 15  1  0  0  0
 14 44  1  0  0  0
 15 16  1  0  0  0
 16 45  1  0  0  0
 16 46  1  0  0  0
 16 47  1  0  0  0
 17 18  2  0  0  0
 17 48  1  0  0  0
 18 26  1  0  0  0
 18 19  1  0  0  0
 19 24  2  0  0  0
 19 20  1  0  0  0
 20 21  2  0  0  0
 20 49  1  0  0  0
 21 22  1  0  0  0
 21 28  1  0  0  0
 22 23  2  0  0  0
 22 50  1  0  0  0
 23 24  1  0  0  0
 23 51  1  0  0  0
 24 25  1  0  0  0
 25 26  1  0  0  0
 26 27  2  0  0  0
 27 55  1  0  0  0
 29 52  1  0  0  0
 29 53  1  0  0  0
 29 54  1  0  0  0
M  CHG  4   3   1  10  -1  25  -1  27   1
M  END
> <s_m_source_file>
/Users/andrea/Development/mcce-charges/epik_inhibitors/output/Sunitinib/Sunitinib-input.mol2

> <i_m_source_file_index>
1

> <r_epik_Ionization_Penalty>
  5.3184

> <r_epik_Ionization_Penalty_Charging>
  5.3184

> <r_epik_Ionization_Penalty_Neutral>
  0.0000

> <r_epik_State_Penalty>
 10.9549

> <i_epik_Tot_Q>
0

$$$$
~{N}-[2-(diethylamino)ethyl]-5-[(~{Z})-(5-fluoro-2-oxo-indolin-3-ylidene)methyl]-2,4-dimethyl-1~{H}-pyrrole-3-carboxamide
                    3D
 Structure written by MMmdl.
 55 57  0  0  1  0            999 V2000
    9.2912  -10.4666   -6.9398 C   0  0  0  0  0  0
    8.1464   -9.8490   -6.2114 C   0  0  0  0  0  0
    7.5182   -8.7975   -7.0104 N   0  3  0  0  0  0
    8.4837   -7.7429   -7.3174 C   0  0  0  0  0  0
    8.9996   -7.1404   -6.0657 C   0  0  0  0  0  0
    6.3811   -8.2522   -6.3186 C   0  0  0  0  0  0
    5.1501   -9.1322   -6.4564 C   0  0  0  0  0  0
    4.0099   -8.5810   -5.7601 N   0  0  0  0  0  0
    3.7324   -8.8805   -4.4358 C   0  0  0  0  0  0
    4.4050   -9.6257   -3.7280 O   0  5  0  0  0  0
    2.5495   -8.2752   -3.8917 C   0  0  0  0  0  0
    2.2534   -6.8952   -3.7695 C   0  0  0  0  0  0
    1.0079   -6.7914   -3.1903 C   0  0  0  0  0  0
    0.5448   -8.0606   -2.9604 N   0  0  0  0  0  0
    1.4759   -8.9728   -3.3836 C   0  0  0  0  0  0
    1.2314  -10.4227   -3.2530 C   0  0  0  0  0  0
    0.1707   -5.6930   -2.8124 C   0  0  0  0  0  0
   -0.7358   -5.1240   -3.6091 C   0  0  0  0  0  0
   -1.6311   -4.0099   -3.3161 C   0  0  0  0  0  0
   -1.8331   -3.2192   -2.2008 C   0  0  0  0  0  0
   -2.8031   -2.2141   -2.2784 C   0  0  0  0  0  0
   -3.5486   -2.0161   -3.4561 C   0  0  0  0  0  0
   -3.3388   -2.8190   -4.5789 C   0  0  0  0  0  0
   -2.3768   -3.8050   -4.4807 C   0  0  0  0  0  0
   -2.0015   -4.7183   -5.4724 N   0  0  0  0  0  0
   -0.9916   -5.5728   -5.0188 C   0  0  0  0  0  0
   -0.4317   -6.4784   -5.6087 O   0  5  0  0  0  0
   -3.0274   -1.4278   -1.2167 F   0  0  0  0  0  0
    3.1212   -5.7734   -4.1865 C   0  0  0  0  0  0
    9.7423  -11.2518   -6.3154 H   0  0  0  0  0  0
   10.0442   -9.6957   -7.1604 H   0  0  0  0  0  0
    8.9317  -10.9080   -7.8810 H   0  0  0  0  0  0
    7.3934  -10.6199   -5.9908 H   0  0  0  0  0  0
    8.5059   -9.4077   -5.2701 H   0  0  0  0  0  0
    9.3243   -8.1692   -7.8846 H   0  0  0  0  0  0
    7.9948   -6.9616   -7.9179 H   0  0  0  0  0  0
    9.7239   -6.3496   -6.3108 H   0  0  0  0  0  0
    9.4937   -7.9159   -5.4620 H   0  0  0  0  0  0
    8.1642   -6.7084   -5.4952 H   0  0  0  0  0  0
    6.6147   -8.1563   -5.2480 H   0  0  0  0  0  0
    6.1411   -7.2614   -6.7317 H   0  0  0  0  0  0
    4.8878   -9.2318   -7.5200 H   0  0  0  0  0  0
    5.3613  -10.1266   -6.0362 H   0  0  0  0  0  0
   -0.4425   -8.2107   -2.4991 H   0  0  0  0  0  0
    0.2464  -10.5884   -2.7923 H   0  0  0  0  0  0
    2.0120  -10.8707   -2.6206 H   0  0  0  0  0  0
    1.2536  -10.8894   -4.2488 H   0  0  0  0  0  0
    0.3136   -5.3200   -1.7875 H   0  0  0  0  0  0
   -1.2640   -3.3618   -1.2888 H   0  0  0  0  0  0
   -4.2956   -1.2275   -3.4894 H   0  0  0  0  0  0
   -3.9128   -2.6682   -5.4860 H   0  0  0  0  0  0
    2.6200   -4.8198   -3.9639 H   0  0  0  0  0  0
    3.3154   -5.8421   -5.2670 H   0  0  0  0  0  0
    4.0738   -5.8236   -3.6388 H   0  0  0  0  0  0
    7.1548   -9.2339   -7.9525 H   0  0  0  0  0  0
  1  2  1  0  0  0
  1 30  1  0  0  0
  1 31  1  0  0  0
  1 32  1  0  0  0
  2  3  1  0  0  0
  2 33  1  0  0  0
  2 34  1  0  0  0
  3  4  1  0  0  0
  3  6  1  0  0  0
  3 55  1  0  0  0
  4  5  1  0  0  0
  4 35  1  0  0  0
  4 36  1  0  0  0
  5 37  1  0  0  0
  5 38  1  0  0  0
  5 39  1  0  0  0
  6  7  1  0  0  0
  6 40  1  0  0  0
  6 41  1  0  0  0
  7  8  1  0  0  0
  7 42  1  0  0  0
  7 43  1  0  0  0
  8  9  2  0  0  0
  9 10  1  0  0  0
  9 11  1  0  0  0
 11 15  2  0  0  0
 11 12  1  0  0  0
 12 13  2  0  0  0
 12 29  1  0  0  0
 13 14  1  0  0  0
 13 17  1  0  0  0
 14 15  1  0  0  0
 14 44  1  0  0  0
 15 16  1  0  0  0
 16 45  1  0  0  0
 16 46  1  0  0  0
 16 47  1  0  0  0
 17 18  2  0  0  0
 17 48  1  0  0  0
 18 26  1  0  0  0
 18 19  1  0  0  0
 19 24  2  0  0  0
 19 20  1  0  0  0
 20 21  2  0  0  0
 20 49  1  0  0  0
 21 22  1  0  0  0
 21 28  1  0  0  0
 22 23  2  0  0  0
 22 50  1  0  0  0
 23 24  1  0  0  0
 23 51  1  0  0  0
 24 25  1  0  0  0
 25 26  2  0  0  0
 26 27  1  0  0  0
 29 52  1  0  0  0
 29 53  1  0  0  0
 29 54  1  0  0  0
M  CHG  3   3   1  10  -1  27  -1
M  END
> <s_m_source_file>
/Users/andrea/Development/mcce-charges/epik_inhibitors/output/Sunitinib/Sunitinib-input.mol2

> <i_m_source_file_index>
1

> <r_epik_Ionization_Penalty>
 10.6418

> <r_epik_Ionization_Penalty_Charging>
 10.6418

> <r_epik_Ionization_Penalty_Neutral>
  0.0000

> <r_epik_State_Penalty>
 11.4780

> <i_epik_Tot_Q>
-1

$$$$
~{N}-[2-(diethylamino)ethyl]-5-[(~{Z})-(5-fluoro-2-oxo-indolin-3-ylidene)methyl]-2,4-dimethyl-1~{H}-pyrrole-3-carboxamide
                    3D
 Structure written by MMmdl.
 58 60  0  0  1  0            999 V2000
    9.2912  -10.4666   -6.9398 C   0  0  0  0  0  0
    8.1464   -9.8490   -6.2114 C   0  0  0  0  0  0
    7.5182   -8.7975   -7.0104 N   0  3  0  0  0  0
    8.4837   -7.7429   -7.3174 C   0  0  0  0  0  0
    8.9996   -7.1404   -6.0657 C   0  0  0  0  0  0
    6.3811   -8.2522   -6.3186 C   0  0  0  0  0  0
    5.1501   -9.1322   -6.4564 C   0  0  0  0  0  0
    4.0099   -8.5810   -5.7601 N   0  0  0  0  0  0
    3.7324   -8.8805   -4.4358 C   0  0  0  0  0  0
    4.4050   -9.6257   -3.7280 O   0  0  0  0  0  0
    2.5495   -8.2752   -3.8917 C   0  0  0  0  0  0
    2.2534   -6.8952   -3.7695 C   0  0  0  0  0  0
    1.0079   -6.7914   -3.1903 C   0  0  0  0  0  0
    0.5448   -8.0606   -2.9604 N   0  0  0  0  0  0
    1.4759   -8.9728   -3.3836 C   0  0  0  0  0  0
    1.2314  -10.4227   -3.2530 C   0  0  0  0  0  0
    0.1707   -5.6930   -2.8124 C   0  0  0  0  0  0
   -0.7358   -5.1240   -3.6091 C   0  0  0  0  0  0
   -1.6311   -4.0099   -3.3161 C   0  0  0  0  0  0
   -1.8331   -3.2192   -2.2008 C   0  0  0  0  0  0
   -2.8031   -2.2141   -2.2784 C   0  0  0  0  0  0
   -3.5486   -2.0161   -3.4561 C   0  0  0  0  0  0
   -3.3388   -2.8190   -4.5789 C   0  0  0  0  0  0
   -2.3768   -3.8050   -4.4807 C   0  0  0  0  0  0
   -2.0015   -4.7183   -5.4724 N   0  0  0  0  0  0
   -0.9916   -5.5728   -5.0188 C   0  0  0  0  0  0
   -0.4317   -6.4784   -5.6087 O   0  3  0  0  0  0
   -3.0274   -1.4278   -1.2167 F   0  0  0  0  0  0
    3.1212   -5.7734   -4.1865 C   0  0  0  0  0  0
    9.7423  -11.2518   -6.3154 H   0  0  0  0  0  0
   10.0442   -9.6957   -7.1604 H   0  0  0  0  0  0
    8.9317  -10.9080   -7.8810 H   0  0  0  0  0  0
    7.3934  -10.6199   -5.9908 H   0  0  0  0  0  0
    8.5059   -9.4077   -5.2701 H   0  0  0  0  0  0
    9.3243   -8.1692   -7.8846 H   0  0  0  0  0  0
    7.9948   -6.9616   -7.9179 H   0  0  0  0  0  0
    9.7239   -6.3496   -6.3108 H   0  0  0  0  0  0
    9.4937   -7.9159   -5.4620 H   0  0  0  0  0  0
    8.1642   -6.7084   -5.4952 H   0  0  0  0  0  0
    6.6147   -8.1563   -5.2480 H   0  0  0  0  0  0
    6.1411   -7.2614   -6.7317 H   0  0  0  0  0  0
    4.8878   -9.2318   -7.5200 H   0  0  0  0  0  0
    5.3613  -10.1266   -6.0362 H   0  0  0  0  0  0
    3.3248   -7.8967   -6.2820 H   0  0  0  0  0  0
   -0.4425   -8.2107   -2.4991 H   0  0  0  0  0  0
    0.2464  -10.5884   -2.7923 H   0  0  0  0  0  0
    2.0120  -10.8707   -2.6206 H   0  0  0  0  0  0
    1.2536  -10.8894   -4.2488 H   0  0  0  0  0  0
    0.3136   -5.3200   -1.7875 H   0  0  0  0  0  0
   -1.2640   -3.3618   -1.2888 H   0  0  0  0  0  0
   -4.2956   -1.2275   -3.4894 H   0  0  0  0  0  0
   -3.9128   -2.6682   -5.4860 H   0  0  0  0  0  0
   -2.4928   -4.6945   -6.4563 H   0  0  0  0  0  0
    2.6200   -4.8198   -3.9639 H   0  0  0  0  0  0
    3.3154   -5.8421   -5.2670 H   0  0  0  0  0  0
    4.0738   -5.8236   -3.6388 H   0  0  0  0  0  0
    7.1548   -9.2339   -7.9525 H   0  0  0  0  0  0
   -0.7093   -6.7130   -6.6469 H   0  0  0  0  0  0
  1  2  1  0  0  0
  1 30  1  0  0  0
  1 31  1  0  0  0
  1 32  1  0  0  0
  2  3  1  0  0  0
  2 33  1  0  0  0
  2 34  1  0  0  0
  3  4  1  0  0  0
  3  6  1  0  0  0
  3 57  1  0  0  0
  4  5  1  0  0  0
  4 35  1  0  0  0
  4 36  1  0  0  0
  5 37  1  0  0  0
  5 38  1  0  0  0
  5 39  1  0  0  0
  6  7  1  0  0  0
  6 40  1  0  0  0
  6 41  1  0  0  0
  7  8  1  0  0  0
  7 42  1  0  0  0
  7 43  1  0  0  0
  8  9  1  0  0  0
  8 44  1  0  0  0
  9 10  2  0  0  0
  9 11  1  0  0  0
 11 15  2  0  0  0
 11 12  1  0  0  0
 12 13  2  0  0  0
 12 29  1  0  0  0
 13 14  1  0  0  0
 13 17  1  0  0  0
 14 15  1  0  0  0
 14 45  1  0  0  0
 15 16  1  0  0  0
 16 46  1  0  0  0
 16 47  1  0  0  0
 16 48  1  0  0  0
 17 18  2  0  0  0
 17 49  1  0  0  0
 18 26  1  0  0  0
 18 19  1  0  0  0
 19 24  2  0  0  0
 19 20  1  0  0  0
 20 21  2  0  0  0
 20 50  1  0  0  0
 21 22  1  0  0  0
 21 28  1  0  0  0
 22 23  2  0  0  0
 22 51  1  0  0  0
 23 24  1  0  0  0
 23 52  1  0  0  0
 24 25  1  0  0  0
 25 26  1  0  0  0
 25 53  1  0  0  0
 26 27  2  0  0  0
 27 58  1  0  0  0
 29 54  1  0  0  0
 29 55  1  0  0  0
 29 56  1  0  0  0
M  CHG  2   3   1  27   1
M  END
> <s_m_source_file>
/Users/andrea/Development/mcce-charges/epik_inhibitors/output/Sunitinib/Sunitinib-input.mol2

> <i_m_source_file_index>
1

> <r_epik_Ionization_Penalty>
 10.9845

> <r_epik_Ionization_Penalty_Charging>
  7.9952

> <r_epik_Ionization_Penalty_Neutral>
  2.9894

> <r_epik_State_Penalty>
 11.4844

> <i_epik_Tot_Q>
2

$$$$
~{N}-[2-(diethylamino)ethyl]-5-[(~{Z})-(5-fluoro-2-oxo-indolin-3-ylidene)methyl]-2,4-dimethyl-1~{H}-pyrrole-3-carboxamide
                    3D
 Structure written by MMmdl.
 55 57  0  0  1  0            999 V2000
    9.2912  -10.4666   -6.9398 C   0  0  0  0  0  0
    8.1464   -9.8490   -6.2114 C   0  0  0  0  0  0
    7.5182   -8.7975   -7.0104 N   0  0  0  0  0  0
    8.4837   -7.7429   -7.3174 C   0  0  0  0  0  0
    8.9996   -7.1404   -6.0657 C   0  0  0  0  0  0
    6.3811   -8.2522   -6.3186 C   0  0  0  0  0  0
    5.1501   -9.1322   -6.4564 C   0  0  0  0  0  0
    4.0099   -8.5810   -5.7601 N   0  0  0  0  0  0
    3.7324   -8.8805   -4.4358 C   0  0  0  0  0  0
    4.4050   -9.6257   -3.7280 O   0  0  0  0  0  0
    2.5495   -8.2752   -3.8917 C   0  0  0  0  0  0
    2.2534   -6.8952   -3.7695 C   0  0  0  0  0  0
    1.0079   -6.7914   -3.1903 C   0  0  0  0  0  0
    0.5448   -8.0606   -2.9604 N   0  5  0  0  0  0
    1.4759   -8.9728   -3.3836 C   0  0  0  0  0  0
    1.2314  -10.4227   -3.2530 C   0  0  0  0  0  0
    0.1707   -5.6930   -2.8124 C   0  0  0  0  0  0
   -0.7358   -5.1240   -3.6091 C   0  0  0  0  0  0
   -1.6311   -4.0099   -3.3161 C   0  0  0  0  0  0
   -1.8331   -3.2192   -2.2008 C   0  0  0  0  0  0
   -2.8031   -2.2141   -2.2784 C   0  0  0  0  0  0
   -3.5486   -2.0161   -3.4561 C   0  0  0  0  0  0
   -3.3388   -2.8190   -4.5789 C   0  0  0  0  0  0
   -2.3768   -3.8050   -4.4807 C   0  0  0  0  0  0
   -2.0015   -4.7183   -5.4724 N   0  0  0  0  0  0
   -0.9916   -5.5728   -5.0188 C   0  0  0  0  0  0
   -0.4317   -6.4784   -5.6087 O   0  0  0  0  0  0
   -3.0274   -1.4278   -1.2167 F   0  0  0  0  0  0
    3.1212   -5.7734   -4.1865 C   0  0  0  0  0  0
    9.7423  -11.2518   -6.3154 H   0  0  0  0  0  0
   10.0442   -9.6957   -7.1604 H   0  0  0  0  0  0
    8.9317  -10.9080   -7.8810 H   0  0  0  0  0  0
    7.3934  -10.6199   -5.9908 H   0  0  0  0  0  0
    8.5059   -9.4077   -5.2701 H   0  0  0  0  0  0
    9.3243   -8.1692   -7.8846 H   0  0  0  0  0  0
    7.9948   -6.9616   -7.9179 H   0  0  0  0  0  0
    9.7239   -6.3496   -6.3108 H   0  0  0  0  0  0
    9.4937   -7.9159   -5.4620 H   0  0  0  0  0  0
    8.1642   -6.7084   -5.4952 H   0  0  0  0  0  0
    6.6147   -8.1563   -5.2480 H   0  0  0  0  0  0
    6.1411   -7.2614   -6.7317 H   0  0  0  0  0  0
    4.8878   -9.2318   -7.5200 H   0  0  0  0  0  0
    5.3613  -10.1266   -6.0362 H   0  0  0  0  0  0
    3.3248   -7.8967   -6.2820 H   0  0  0  0  0  0
    0.2464  -10.5884   -2.7923 H   0  0  0  0  0  0
    2.0120  -10.8707   -2.6206 H   0  0  0  0  0  0
    1.2536  -10.8894   -4.2488 H   0  0  0  0  0  0
    0.3136   -5.3200   -1.7875 H   0  0  0  0  0  0
   -1.2640   -3.3618   -1.2888 H   0  0  0  0  0  0
   -4.2956   -1.2275   -3.4894 H   0  0  0  0  0  0
   -3.9128   -2.6682   -5.4860 H   0  0  0  0  0  0
   -2.4928   -4.6945   -6.4563 H   0  0  0  0  0  0
    2.6200   -4.8198   -3.9639 H   0  0  0  0  0  0
    3.3154   -5.8421   -5.2670 H   0  0  0  0  0  0
    4.0738   -5.8236   -3.6388 H   0  0  0  0  0  0
  1  2  1  0  0  0
  1 30  1  0  0  0
  1 31  1  0  0  0
  1 32  1  0  0  0
  2  3  1  0  0  0
  2 33  1  0  0  0
  2 34  1  0  0  0
  3  4  1  0  0  0
  3  6  1  0  0  0
  4  5  1  0  0  0
  4 35  1  0  0  0
  4 36  1  0  0  0
  5 37  1  0  0  0
  5 38  1  0  0  0
  5 39  1  0  0  0
  6  7  1  0  0  0
  6 40  1  0  0  0
  6 41  1  0  0  0
  7  8  1  0  0  0
  7 42  1  0  0  0
  7 43  1  0  0  0
  8  9  1  0  0  0
  8 44  1  0  0  0
  9 10  2  0  0  0
  9 11  1  0  0  0
 11 15  2  0  0  0
 11 12  1  0  0  0
 12 13  2  0  0  0
 12 29  1  0  0  0
 13 14  1  0  0  0
 13 17  1  0  0  0
 14 15  1  0  0  0
 15 16  1  0  0  0
 16 45  1  0  0  0
 16 46  1  0  0  0
 16 47  1  0  0  0
 17 18  2  0  0  0
 17 48  1  0  0  0
 18 26  1  0  0  0
 18 19  1  0  0  0
 19 24  2  0  0  0
 19 20  1  0  0  0
 20 21  2  0  0  0
 20 49  1  0  0  0
 21 22  1  0  0  0
 21 28  1  0  0  0
 22 23  2  0  0  0
 22 50  1  0  0  0
 23 24  1  0  0  0
 23 51  1  0  0  0
 24 25  1  0  0  0
 25 26  1  0  0  0
 25 52  1  0  0  0
 26 27  2  0  0  0
 29 53  1  0  0  0
 29 54  1  0  0  0
 29 55  1  0  0  0
M  CHG  1  14  -1
M  END
> <s_m_source_file>
/Users/andrea/Development/mcce-charges/epik_inhibitors/output/Sunitinib/Sunitinib-input.mol2

> <i_m_source_file_index>
1

> <r_epik_Ionization_Penalty>
 11.3673

> <r_epik_Ionization_Penalty_Charging>
  8.9535

> <r_epik_Ionization_Penalty_Neutral>
  2.4139

> <r_epik_State_Penalty>
 11.8674

> <i_epik_Tot_Q>
-1

$$$$
