@<TRIPOS>MOLECULE
~{N}-[2-(diethylamino)ethyl]-5-[(~{Z})-(5-fluoro-2-oxo-indolin-3-ylidene)methyl]-2,4-dimethyl-1~{H}-pyrrole-3-carboxamide
   56    58     0     0     0
SMALL
USER_CHARGES

@<TRIPOS>ATOM
      1 C1          9.2912  -10.4666   -6.9398 C.3       1 SUN        -0.1130
      2 C2          8.1464   -9.8490   -6.2114 C.3       1 SUN         0.1555
      3 N1          7.5182   -8.7975   -7.0104 N.3       1 SUN        -0.7085
      4 C3          8.4837   -7.7429   -7.3174 C.3       1 SUN         0.1555
      5 C4          8.9996   -7.1404   -6.0657 C.3       1 SUN        -0.1130
      6 C5          6.3811   -8.2522   -6.3186 C.3       1 SUN         0.1446
      7 C6          5.1501   -9.1322   -6.4564 C.3       1 SUN         0.0966
      8 N2          4.0099   -8.5810   -5.7601 N.am      1 SUN        -0.5886
      9 C7          3.7324   -8.8805   -4.4358 C.2       1 SUN         0.7062
     10 O1          4.4050   -9.6257   -3.7280 O.2       1 SUN        -0.5950
     11 C8          2.5495   -8.2752   -3.8917 C.2       1 SUN        -0.2266
     12 C9          2.2534   -6.8952   -3.7695 C.2       1 SUN        -0.0397
     13 C10         1.0079   -6.7914   -3.1903 C.2       1 SUN        -0.1473
     14 N3          0.5448   -8.0606   -2.9604 N.pl3     1 SUN        -0.1443
     15 C11         1.4759   -8.9728   -3.3836 C.2       1 SUN        -0.0381
     16 C12         1.2314  -10.4227   -3.2530 C.3       1 SUN        -0.0464
     17 C13         0.1707   -5.6930   -2.8124 C.2       1 SUN         0.0387
     18 C14        -0.7358   -5.1240   -3.6091 C.2       1 SUN        -0.1372
     19 C15        -1.6311   -4.0099   -3.3161 C.ar      1 SUN        -0.0873
     20 C16        -1.8331   -3.2192   -2.2008 C.ar      1 SUN        -0.1062
     21 C17        -2.8031   -2.2141   -2.2784 C.ar      1 SUN         0.0903
     22 C18        -3.5486   -2.0161   -3.4561 C.ar      1 SUN        -0.1268
     23 C19        -3.3388   -2.8190   -4.5789 C.ar      1 SUN        -0.1453
     24 C20        -2.3768   -3.8050   -4.4807 C.ar      1 SUN         0.0520
     25 N4         -2.0015   -4.7183   -5.4724 N.am      1 SUN        -0.4782
     26 C21        -0.9916   -5.5728   -5.0188 C.2       1 SUN         0.7015
     27 O2         -0.4317   -6.4784   -5.6087 O.2       1 SUN        -0.5983
     28 F1         -3.0274   -1.4278   -1.2167 F         1 SUN        -0.1407
     29 C22         3.1212   -5.7734   -4.1865 C.3       1 SUN        -0.0364
     30 H1          9.7586  -11.2534   -6.3378 H         1 SUN         0.0386
     31 H2          8.9630  -10.8900   -7.8953 H         1 SUN         0.0386
     32 H3         10.0518   -9.7052   -7.1501 H         1 SUN         0.0386
     33 H4          8.4866   -9.3979   -5.2743 H         1 SUN         0.0441
     34 H5          7.3814  -10.5974   -5.9848 H         1 SUN         0.0441
     35 H6          9.2776   -8.2101   -7.8937 H         1 SUN         0.0441
     36 H7          7.9599   -7.0154   -7.9312 H         1 SUN         0.0441
     37 H8          9.7254   -6.3471   -6.2749 H         1 SUN         0.0386
     38 H9          8.1865   -6.7339   -5.4546 H         1 SUN         0.0386
     39 H10         9.5070   -7.9171   -5.4811 H         1 SUN         0.0386
     40 H11         6.6663   -8.1258   -5.2694 H         1 SUN         0.0322
     41 H12         6.1871   -7.2645   -6.7484 H         1 SUN         0.0322
     42 H13         4.8683   -9.2272   -7.5095 H         1 SUN         0.0572
     43 H14         5.3290  -10.1342   -6.0532 H         1 SUN         0.0572
     44 H15         3.3898   -7.9516   -6.2592 H         1 SUN         0.3102
     45 H16        -0.3464   -8.2941   -2.5426 H         1 SUN         0.3018
     46 H17         0.7315  -10.8236   -4.1499 H         1 SUN         0.0585
     47 H18         2.1675  -10.9889   -3.1097 H         1 SUN         0.0585
     48 H19         0.5965  -10.6583   -2.3817 H         1 SUN         0.0585
     49 H20         0.2568   -5.3093   -1.7979 H         1 SUN         0.1490
     50 H21        -1.2640   -3.3618   -1.2888 H         1 SUN         0.1535
     51 H22        -4.2956   -1.2275   -3.4894 H         1 SUN         0.1524
     52 H23        -3.9128   -2.6682   -5.4860 H         1 SUN         0.1471
     53 H24        -2.4089   -4.7556   -6.3993 H         1 SUN         0.3443
     54 H25         2.9190   -5.4843   -5.2300 H         1 SUN         0.0518
     55 H26         2.9732   -4.8818   -3.5550 H         1 SUN         0.0518
     56 H27         4.1908   -6.0298   -4.1090 H         1 SUN         0.0518
@<TRIPOS>BOND
     1    1    2 1
     2    2    3 1
     3    3    4 1
     4    4    5 1
     5    3    6 1
     6    6    7 1
     7    7    8 1
     8    8    9 am
     9    9   10 2
    10    9   11 1
    11   11   15 2
    12   11   12 1
    13   12   13 2
    14   13   14 1
    15   14   15 1
    16   15   16 1
    17   13   17 1
    18   17   18 2
    19   18   26 1
    20   18   19 1
    21   19   24 ar
    22   19   20 ar
    23   20   21 ar
    24   21   22 ar
    25   22   23 ar
    26   23   24 ar
    27   24   25 1
    28   25   26 am
    29   26   27 2
    30   21   28 1
    31   12   29 1
    32    1   30 1
    33    1   31 1
    34    1   32 1
    35    2   33 1
    36    2   34 1
    37    4   35 1
    38    4   36 1
    39    5   37 1
    40    5   38 1
    41    5   39 1
    42    6   40 1
    43    6   41 1
    44    7   42 1
    45    7   43 1
    46    8   44 1
    47   14   45 1
    48   16   46 1
    49   16   47 1
    50   16   48 1
    51   17   49 1
    52   20   50 1
    53   22   51 1
    54   23   52 1
    55   25   53 1
    56   29   54 1
    57   29   55 1
    58   29   56 1
