@<TRIPOS>MOLECULE
~{N}-[2-(diethylamino)ethyl]-5-[(~{Z})-(5-fluoro-2-oxo-indolin-3-ylidene)methyl]-2,4-dimethyl-1~{H}-pyrrole-3-carboxamide
57   59    1
SMALL
USER_CHARGES


@<TRIPOS>ATOM
      1 C1          9.2912  -10.4666   -6.9398 C.3       1 SUN        -0.1130 
      2 C2          8.1464   -9.8490   -6.2114 C.3       1 SUN         0.1555 
      3 N1          7.5182   -8.7975   -7.0104 N.4       1 SUN        -0.7085 
      4 C3          8.4837   -7.7429   -7.3174 C.3       1 SUN         0.1555 
      5 C4          8.9996   -7.1404   -6.0657 C.3       1 SUN        -0.1130 
      6 C5          6.3811   -8.2522   -6.3186 C.3       1 SUN         0.1446 
      7 C6          5.1501   -9.1322   -6.4564 C.3       1 SUN         0.0966 
      8 N2          4.0099   -8.5810   -5.7601 N.am      1 SUN        -0.5886 
      9 C7          3.7324   -8.8805   -4.4358 C.2       1 SUN         0.7062 
     10 O1          4.4050   -9.6257   -3.7280 O.2       1 SUN        -0.5950 
     11 C8          2.5495   -8.2752   -3.8917 C.ar      1 SUN        -0.2266 
     12 C9          2.2534   -6.8952   -3.7695 C.ar      1 SUN        -0.0397 
     13 C10         1.0079   -6.7914   -3.1903 C.ar      1 SUN        -0.1473 
     14 N3          0.5448   -8.0606   -2.9604 N.pl3     1 SUN        -0.1443 
     15 C11         1.4759   -8.9728   -3.3836 C.ar      1 SUN        -0.0381 
     16 C12         1.2314  -10.4227   -3.2530 C.3       1 SUN        -0.0464 
     17 C13         0.1707   -5.6930   -2.8124 C.2       1 SUN         0.0387 
     18 C14        -0.7358   -5.1240   -3.6091 C.2       1 SUN        -0.1372 
     19 C15        -1.6311   -4.0099   -3.3161 C.ar      1 SUN        -0.0873 
     20 C16        -1.8331   -3.2192   -2.2008 C.ar      1 SUN        -0.1062 
     21 C17        -2.8031   -2.2141   -2.2784 C.ar      1 SUN         0.0903 
     22 C18        -3.5486   -2.0161   -3.4561 C.ar      1 SUN        -0.1268 
     23 C19        -3.3388   -2.8190   -4.5789 C.ar      1 SUN        -0.1453 
     24 C20        -2.3768   -3.8050   -4.4807 C.ar      1 SUN         0.0520 
     25 N4         -2.0015   -4.7183   -5.4724 N.am      1 SUN        -0.4782 
     26 C21        -0.9916   -5.5728   -5.0188 C.2       1 SUN         0.7015 
     27 O2         -0.4317   -6.4784   -5.6087 O.2       1 SUN        -0.5983 
     28 F1         -3.0274   -1.4278   -1.2167 F         1 SUN        -0.1407 
     29 C22         3.1212   -5.7734   -4.1865 C.3       1 SUN        -0.0364 
     30 H1          9.7423  -11.2518   -6.3154 H         1 SUN         0.0386 
     31 H2         10.0442   -9.6957   -7.1604 H         1 SUN         0.0386 
     32 H3          8.9317  -10.9080   -7.8810 H         1 SUN         0.0386 
     33 H4          7.3934  -10.6199   -5.9908 H         1 SUN         0.0441 
     34 H5          8.5059   -9.4077   -5.2701 H         1 SUN         0.0441 
     35 H6          9.3243   -8.1692   -7.8846 H         1 SUN         0.0441 
     36 H7          7.9948   -6.9616   -7.9179 H         1 SUN         0.0441 
     37 H8          9.7239   -6.3496   -6.3108 H         1 SUN         0.0386 
     38 H9          9.4937   -7.9159   -5.4620 H         1 SUN         0.0386 
     39 H10         8.1642   -6.7084   -5.4952 H         1 SUN         0.0386 
     40 H11         6.6147   -8.1563   -5.2480 H         1 SUN         0.0322 
     41 H12         6.1411   -7.2614   -6.7317 H         1 SUN         0.0322 
     42 H13         4.8878   -9.2318   -7.5200 H         1 SUN         0.0572 
     43 H14         5.3613  -10.1266   -6.0362 H         1 SUN         0.0572 
     44 H15         3.3248   -7.8967   -6.2820 H         1 SUN         0.3102 
     45 H16        -0.4425   -8.2107   -2.4991 H         1 SUN         0.3018 
     46 H17         0.2464  -10.5884   -2.7923 H         1 SUN         0.0585 
     47 H18         2.0120  -10.8707   -2.6206 H         1 SUN         0.0585 
     48 H19         1.2536  -10.8894   -4.2488 H         1 SUN         0.0585 
     49 H20         0.3136   -5.3200   -1.7875 H         1 SUN         0.1490 
     50 H21        -1.2640   -3.3618   -1.2888 H         1 SUN         0.1535 
     51 H22        -4.2956   -1.2275   -3.4894 H         1 SUN         0.1524 
     52 H23        -3.9128   -2.6682   -5.4860 H         1 SUN         0.1471 
     53 H24        -2.4928   -4.6945   -6.4563 H         1 SUN         0.3443 
     54 H25         2.6200   -4.8198   -3.9639 H         1 SUN         0.0518 
     55 H26         3.3154   -5.8421   -5.2670 H         1 SUN         0.0518 
     56 H27         4.0738   -5.8236   -3.6388 H         1 SUN         0.0518 
     57 H57         7.1548   -9.2339   -7.9525 H         1 SUN         0.0000 
@<TRIPOS>BOND
     1    1    2 1    
     2    1   30 1    
     3    1   31 1    
     4    1   32 1    
     5    2    3 1    
     6    2   33 1    
     7    2   34 1    
     8    3    4 1    
     9    3    6 1    
    10    3   57 1    
    11    4    5 1    
    12    4   35 1    
    13    4   36 1    
    14    5   37 1    
    15    5   38 1    
    16    5   39 1    
    17    6    7 1    
    18    6   40 1    
    19    6   41 1    
    20    7    8 1    
    21    7   42 1    
    22    7   43 1    
    23    8    9 am   BACKBONE|DICT|INTERRES
    24    8   44 1    
    25    9   10 2    
    26    9   11 1    
    27   11   15 ar   
    28   11   12 ar   
    29   12   13 ar   
    30   12   29 1    
    31   13   14 ar   
    32   13   17 1    
    33   14   15 ar   
    34   14   45 1    
    35   15   16 1    
    36   16   46 1    
    37   16   47 1    
    38   16   48 1    
    39   17   18 2    
    40   17   49 1    
    41   18   26 1    
    42   18   19 1    
    43   19   24 ar   
    44   19   20 ar   
    45   20   21 ar   
    46   20   50 1    
    47   21   22 ar   
    48   21   28 1    
    49   22   23 ar   
    50   22   51 1    
    51   23   24 ar   
    52   23   52 1    
    53   24   25 1    
    54   25   26 am   BACKBONE|DICT|INTERRES
    55   25   53 1    
    56   26   27 2    
    57   29   54 1    
    58   29   55 1    
    59   29   56 1    
@<TRIPOS>SUBSTRUCTURE
     1 SUN         1 GROUP             0       ****    0 ROOT    
@<TRIPOS>MOLECULE
~{N}-[2-(diethylamino)ethyl]-5-[(~{Z})-(5-fluoro-2-oxo-indolin-3-ylidene)methyl]-2,4-dimethyl-1~{H}-pyrrole-3-carboxamide
56   58    1
SMALL
USER_CHARGES


@<TRIPOS>ATOM
      1 C1          9.2912  -10.4666   -6.9398 C.3       1 SUN        -0.1130 
      2 C2          8.1464   -9.8490   -6.2114 C.3       1 SUN         0.1555 
      3 N1          7.5182   -8.7975   -7.0104 N.3       1 SUN        -0.7085 
      4 C3          8.4837   -7.7429   -7.3174 C.3       1 SUN         0.1555 
      5 C4          8.9996   -7.1404   -6.0657 C.3       1 SUN        -0.1130 
      6 C5          6.3811   -8.2522   -6.3186 C.3       1 SUN         0.1446 
      7 C6          5.1501   -9.1322   -6.4564 C.3       1 SUN         0.0966 
      8 N2          4.0099   -8.5810   -5.7601 N.am      1 SUN        -0.5886 
      9 C7          3.7324   -8.8805   -4.4358 C.2       1 SUN         0.7062 
     10 O1          4.4050   -9.6257   -3.7280 O.2       1 SUN        -0.5950 
     11 C8          2.5495   -8.2752   -3.8917 C.ar      1 SUN        -0.2266 
     12 C9          2.2534   -6.8952   -3.7695 C.ar      1 SUN        -0.0397 
     13 C10         1.0079   -6.7914   -3.1903 C.ar      1 SUN        -0.1473 
     14 N3          0.5448   -8.0606   -2.9604 N.pl3     1 SUN        -0.1443 
     15 C11         1.4759   -8.9728   -3.3836 C.ar      1 SUN        -0.0381 
     16 C12         1.2314  -10.4227   -3.2530 C.3       1 SUN        -0.0464 
     17 C13         0.1707   -5.6930   -2.8124 C.2       1 SUN         0.0387 
     18 C14        -0.7358   -5.1240   -3.6091 C.2       1 SUN        -0.1372 
     19 C15        -1.6311   -4.0099   -3.3161 C.ar      1 SUN        -0.0873 
     20 C16        -1.8331   -3.2192   -2.2008 C.ar      1 SUN        -0.1062 
     21 C17        -2.8031   -2.2141   -2.2784 C.ar      1 SUN         0.0903 
     22 C18        -3.5486   -2.0161   -3.4561 C.ar      1 SUN        -0.1268 
     23 C19        -3.3388   -2.8190   -4.5789 C.ar      1 SUN        -0.1453 
     24 C20        -2.3768   -3.8050   -4.4807 C.ar      1 SUN         0.0520 
     25 N4         -2.0015   -4.7183   -5.4724 N.am      1 SUN        -0.4782 
     26 C21        -0.9916   -5.5728   -5.0188 C.2       1 SUN         0.7015 
     27 O2         -0.4317   -6.4784   -5.6087 O.2       1 SUN        -0.5983 
     28 F1         -3.0274   -1.4278   -1.2167 F         1 SUN        -0.1407 
     29 C22         3.1212   -5.7734   -4.1865 C.3       1 SUN        -0.0364 
     30 H1          9.7423  -11.2518   -6.3154 H         1 SUN         0.0386 
     31 H2         10.0442   -9.6957   -7.1604 H         1 SUN         0.0386 
     32 H3          8.9317  -10.9080   -7.8810 H         1 SUN         0.0386 
     33 H4          7.3934  -10.6199   -5.9908 H         1 SUN         0.0441 
     34 H5          8.5059   -9.4077   -5.2701 H         1 SUN         0.0441 
     35 H6          9.3243   -8.1692   -7.8846 H         1 SUN         0.0441 
     36 H7          7.9948   -6.9616   -7.9179 H         1 SUN         0.0441 
     37 H8          9.7239   -6.3496   -6.3108 H         1 SUN         0.0386 
     38 H9          9.4937   -7.9159   -5.4620 H         1 SUN         0.0386 
     39 H10         8.1642   -6.7084   -5.4952 H         1 SUN         0.0386 
     40 H11         6.6147   -8.1563   -5.2480 H         1 SUN         0.0322 
     41 H12         6.1411   -7.2614   -6.7317 H         1 SUN         0.0322 
     42 H13         4.8878   -9.2318   -7.5200 H         1 SUN         0.0572 
     43 H14         5.3613  -10.1266   -6.0362 H         1 SUN         0.0572 
     44 H15         3.3248   -7.8967   -6.2820 H         1 SUN         0.3102 
     45 H16        -0.4425   -8.2107   -2.4991 H         1 SUN         0.3018 
     46 H17         0.2464  -10.5884   -2.7923 H         1 SUN         0.0585 
     47 H18         2.0120  -10.8707   -2.6206 H         1 SUN         0.0585 
     48 H19         1.2536  -10.8894   -4.2488 H         1 SUN         0.0585 
     49 H20         0.3136   -5.3200   -1.7875 H         1 SUN         0.1490 
     50 H21        -1.2640   -3.3618   -1.2888 H         1 SUN         0.1535 
     51 H22        -4.2956   -1.2275   -3.4894 H         1 SUN         0.1524 
     52 H23        -3.9128   -2.6682   -5.4860 H         1 SUN         0.1471 
     53 H24        -2.4928   -4.6945   -6.4563 H         1 SUN         0.3443 
     54 H25         2.6200   -4.8198   -3.9639 H         1 SUN         0.0518 
     55 H26         3.3154   -5.8421   -5.2670 H         1 SUN         0.0518 
     56 H27         4.0738   -5.8236   -3.6388 H         1 SUN         0.0518 
@<TRIPOS>BOND
     1    1    2 1    
     2    1   30 1    
     3    1   31 1    
     4    1   32 1    
     5    2    3 1    
     6    2   33 1    
     7    2   34 1    
     8    3    4 1    
     9    3    6 1    
    10    4    5 1    
    11    4   35 1    
    12    4   36 1    
    13    5   37 1    
    14    5   38 1    
    15    5   39 1    
    16    6    7 1    
    17    6   40 1    
    18    6   41 1    
    19    7    8 1    
    20    7   42 1    
    21    7   43 1    
    22    8    9 am   BACKBONE|DICT|INTERRES
    23    8   44 1    
    24    9   10 2    
    25    9   11 1    
    26   11   15 ar   
    27   11   12 ar   
    28   12   13 ar   
    29   12   29 1    
    30   13   14 ar   
    31   13   17 1    
    32   14   15 ar   
    33   14   45 1    
    34   15   16 1    
    35   16   46 1    
    36   16   47 1    
    37   16   48 1    
    38   17   18 2    
    39   17   49 1    
    40   18   26 1    
    41   18   19 1    
    42   19   24 ar   
    43   19   20 ar   
    44   20   21 ar   
    45   20   50 1    
    46   21   22 ar   
    47   21   28 1    
    48   22   23 ar   
    49   22   51 1    
    50   23   24 ar   
    51   23   52 1    
    52   24   25 1    
    53   25   26 am   BACKBONE|DICT|INTERRES
    54   25   53 1    
    55   26   27 2    
    56   29   54 1    
    57   29   55 1    
    58   29   56 1    
@<TRIPOS>SUBSTRUCTURE
     1 SUN         1 GROUP             0       ****    0 ROOT    
@<TRIPOS>MOLECULE
~{N}-[2-(diethylamino)ethyl]-5-[(~{Z})-(5-fluoro-2-oxo-indolin-3-ylidene)methyl]-2,4-dimethyl-1~{H}-pyrrole-3-carboxamide
56   58    1
SMALL
USER_CHARGES


@<TRIPOS>ATOM
      1 C1          9.2912  -10.4666   -6.9398 C.3       1 SUN        -0.1130 
      2 C2          8.1464   -9.8490   -6.2114 C.3       1 SUN         0.1555 
      3 N1          7.5182   -8.7975   -7.0104 N.4       1 SUN        -0.7085 
      4 C3          8.4837   -7.7429   -7.3174 C.3       1 SUN         0.1555 
      5 C4          8.9996   -7.1404   -6.0657 C.3       1 SUN        -0.1130 
      6 C5          6.3811   -8.2522   -6.3186 C.3       1 SUN         0.1446 
      7 C6          5.1501   -9.1322   -6.4564 C.3       1 SUN         0.0966 
      8 N2          4.0099   -8.5810   -5.7601 N.2       1 SUN        -0.5886 
      9 C7          3.7324   -8.8805   -4.4358 C.2       1 SUN         0.7062 
     10 O1          4.4050   -9.6257   -3.7280 O.co2     1 SUN        -0.5950 
     11 C8          2.5495   -8.2752   -3.8917 C.ar      1 SUN        -0.2266 
     12 C9          2.2534   -6.8952   -3.7695 C.ar      1 SUN        -0.0397 
     13 C10         1.0079   -6.7914   -3.1903 C.ar      1 SUN        -0.1473 
     14 N3          0.5448   -8.0606   -2.9604 N.pl3     1 SUN        -0.1443 
     15 C11         1.4759   -8.9728   -3.3836 C.ar      1 SUN        -0.0381 
     16 C12         1.2314  -10.4227   -3.2530 C.3       1 SUN        -0.0464 
     17 C13         0.1707   -5.6930   -2.8124 C.2       1 SUN         0.0387 
     18 C14        -0.7358   -5.1240   -3.6091 C.2       1 SUN        -0.1372 
     19 C15        -1.6311   -4.0099   -3.3161 C.ar      1 SUN        -0.0873 
     20 C16        -1.8331   -3.2192   -2.2008 C.ar      1 SUN        -0.1062 
     21 C17        -2.8031   -2.2141   -2.2784 C.ar      1 SUN         0.0903 
     22 C18        -3.5486   -2.0161   -3.4561 C.ar      1 SUN        -0.1268 
     23 C19        -3.3388   -2.8190   -4.5789 C.ar      1 SUN        -0.1453 
     24 C20        -2.3768   -3.8050   -4.4807 C.ar      1 SUN         0.0520 
     25 N4         -2.0015   -4.7183   -5.4724 N.am      1 SUN        -0.4782 
     26 C21        -0.9916   -5.5728   -5.0188 C.2       1 SUN         0.7015 
     27 O2         -0.4317   -6.4784   -5.6087 O.2       1 SUN        -0.5983 
     28 F1         -3.0274   -1.4278   -1.2167 F         1 SUN        -0.1407 
     29 C22         3.1212   -5.7734   -4.1865 C.3       1 SUN        -0.0364 
     30 H1          9.7423  -11.2518   -6.3154 H         1 SUN         0.0386 
     31 H2         10.0442   -9.6957   -7.1604 H         1 SUN         0.0386 
     32 H3          8.9317  -10.9080   -7.8810 H         1 SUN         0.0386 
     33 H4          7.3934  -10.6199   -5.9908 H         1 SUN         0.0441 
     34 H5          8.5059   -9.4077   -5.2701 H         1 SUN         0.0441 
     35 H6          9.3243   -8.1692   -7.8846 H         1 SUN         0.0441 
     36 H7          7.9948   -6.9616   -7.9179 H         1 SUN         0.0441 
     37 H8          9.7239   -6.3496   -6.3108 H         1 SUN         0.0386 
     38 H9          9.4937   -7.9159   -5.4620 H         1 SUN         0.0386 
     39 H10         8.1642   -6.7084   -5.4952 H         1 SUN         0.0386 
     40 H11         6.6147   -8.1563   -5.2480 H         1 SUN         0.0322 
     41 H12         6.1411   -7.2614   -6.7317 H         1 SUN         0.0322 
     42 H13         4.8878   -9.2318   -7.5200 H         1 SUN         0.0572 
     43 H14         5.3613  -10.1266   -6.0362 H         1 SUN         0.0572 
     44 H16        -0.4425   -8.2107   -2.4991 H         1 SUN         0.3018 
     45 H17         0.2464  -10.5884   -2.7923 H         1 SUN         0.0585 
     46 H18         2.0120  -10.8707   -2.6206 H         1 SUN         0.0585 
     47 H19         1.2536  -10.8894   -4.2488 H         1 SUN         0.0585 
     48 H20         0.3136   -5.3200   -1.7875 H         1 SUN         0.1490 
     49 H21        -1.2640   -3.3618   -1.2888 H         1 SUN         0.1535 
     50 H22        -4.2956   -1.2275   -3.4894 H         1 SUN         0.1524 
     51 H23        -3.9128   -2.6682   -5.4860 H         1 SUN         0.1471 
     52 H24        -2.4928   -4.6945   -6.4563 H         1 SUN         0.3443 
     53 H25         2.6200   -4.8198   -3.9639 H         1 SUN         0.0518 
     54 H26         3.3154   -5.8421   -5.2670 H         1 SUN         0.0518 
     55 H27         4.0738   -5.8236   -3.6388 H         1 SUN         0.0518 
     56 H56         7.1548   -9.2339   -7.9525 H         1 SUN         0.0000 
@<TRIPOS>BOND
     1    1    2 1    
     2    1   30 1    
     3    1   31 1    
     4    1   32 1    
     5    2    3 1    
     6    2   33 1    
     7    2   34 1    
     8    3    4 1    
     9    3    6 1    
    10    3   56 1    
    11    4    5 1    
    12    4   35 1    
    13    4   36 1    
    14    5   37 1    
    15    5   38 1    
    16    5   39 1    
    17    6    7 1    
    18    6   40 1    
    19    6   41 1    
    20    7    8 1    
    21    7   42 1    
    22    7   43 1    
    23    8    9 2    
    24    9   10 1    
    25    9   11 1    
    26   11   15 ar   
    27   11   12 ar   
    28   12   13 ar   
    29   12   29 1    
    30   13   14 ar   
    31   13   17 1    
    32   14   15 ar   
    33   14   44 1    
    34   15   16 1    
    35   16   45 1    
    36   16   46 1    
    37   16   47 1    
    38   17   18 2    
    39   17   48 1    
    40   18   26 1    
    41   18   19 1    
    42   19   24 ar   
    43   19   20 ar   
    44   20   21 ar   
    45   20   49 1    
    46   21   22 ar   
    47   21   28 1    
    48   22   23 ar   
    49   22   50 1    
    50   23   24 ar   
    51   23   51 1    
    52   24   25 1    
    53   25   26 am   BACKBONE|DICT|INTERRES
    54   25   52 1    
    55   26   27 2    
    56   29   53 1    
    57   29   54 1    
    58   29   55 1    
@<TRIPOS>SUBSTRUCTURE
     1 SUN         1 GROUP             0       ****    0 ROOT    
@<TRIPOS>MOLECULE
~{N}-[2-(diethylamino)ethyl]-5-[(~{Z})-(5-fluoro-2-oxo-indolin-3-ylidene)methyl]-2,4-dimethyl-1~{H}-pyrrole-3-carboxamide
56   58    1
SMALL
USER_CHARGES


@<TRIPOS>ATOM
      1 C1          9.2912  -10.4666   -6.9398 C.3       1 SUN        -0.1130 
      2 C2          8.1464   -9.8490   -6.2114 C.3       1 SUN         0.1555 
      3 N1          7.5182   -8.7975   -7.0104 N.4       1 SUN        -0.7085 
      4 C3          8.4837   -7.7429   -7.3174 C.3       1 SUN         0.1555 
      5 C4          8.9996   -7.1404   -6.0657 C.3       1 SUN        -0.1130 
      6 C5          6.3811   -8.2522   -6.3186 C.3       1 SUN         0.1446 
      7 C6          5.1501   -9.1322   -6.4564 C.3       1 SUN         0.0966 
      8 N2          4.0099   -8.5810   -5.7601 N.am      1 SUN        -0.5886 
      9 C7          3.7324   -8.8805   -4.4358 C.2       1 SUN         0.7062 
     10 O1          4.4050   -9.6257   -3.7280 O.2       1 SUN        -0.5950 
     11 C8          2.5495   -8.2752   -3.8917 C.ar      1 SUN        -0.2266 
     12 C9          2.2534   -6.8952   -3.7695 C.ar      1 SUN        -0.0397 
     13 C10         1.0079   -6.7914   -3.1903 C.ar      1 SUN        -0.1473 
     14 N3          0.5448   -8.0606   -2.9604 N.pl3     1 SUN        -0.1443 
     15 C11         1.4759   -8.9728   -3.3836 C.ar      1 SUN        -0.0381 
     16 C12         1.2314  -10.4227   -3.2530 C.3       1 SUN        -0.0464 
     17 C13         0.1707   -5.6930   -2.8124 C.2       1 SUN         0.0387 
     18 C14        -0.7358   -5.1240   -3.6091 C.2       1 SUN        -0.1372 
     19 C15        -1.6311   -4.0099   -3.3161 C.ar      1 SUN        -0.0873 
     20 C16        -1.8331   -3.2192   -2.2008 C.ar      1 SUN        -0.1062 
     21 C17        -2.8031   -2.2141   -2.2784 C.ar      1 SUN         0.0903 
     22 C18        -3.5486   -2.0161   -3.4561 C.ar      1 SUN        -0.1268 
     23 C19        -3.3388   -2.8190   -4.5789 C.ar      1 SUN        -0.1453 
     24 C20        -2.3768   -3.8050   -4.4807 C.ar      1 SUN         0.0520 
     25 N4         -2.0015   -4.7183   -5.4724 N.2       1 SUN        -0.4782 
     26 C21        -0.9916   -5.5728   -5.0188 C.2       1 SUN         0.7015 
     27 O2         -0.4317   -6.4784   -5.6087 O.co2     1 SUN        -0.5983 
     28 F1         -3.0274   -1.4278   -1.2167 F         1 SUN        -0.1407 
     29 C22         3.1212   -5.7734   -4.1865 C.3       1 SUN        -0.0364 
     30 H1          9.7423  -11.2518   -6.3154 H         1 SUN         0.0386 
     31 H2         10.0442   -9.6957   -7.1604 H         1 SUN         0.0386 
     32 H3          8.9317  -10.9080   -7.8810 H         1 SUN         0.0386 
     33 H4          7.3934  -10.6199   -5.9908 H         1 SUN         0.0441 
     34 H5          8.5059   -9.4077   -5.2701 H         1 SUN         0.0441 
     35 H6          9.3243   -8.1692   -7.8846 H         1 SUN         0.0441 
     36 H7          7.9948   -6.9616   -7.9179 H         1 SUN         0.0441 
     37 H8          9.7239   -6.3496   -6.3108 H         1 SUN         0.0386 
     38 H9          9.4937   -7.9159   -5.4620 H         1 SUN         0.0386 
     39 H10         8.1642   -6.7084   -5.4952 H         1 SUN         0.0386 
     40 H11         6.6147   -8.1563   -5.2480 H         1 SUN         0.0322 
     41 H12         6.1411   -7.2614   -6.7317 H         1 SUN         0.0322 
     42 H13         4.8878   -9.2318   -7.5200 H         1 SUN         0.0572 
     43 H14         5.3613  -10.1266   -6.0362 H         1 SUN         0.0572 
     44 H15         3.3248   -7.8967   -6.2820 H         1 SUN         0.3102 
     45 H16        -0.4425   -8.2107   -2.4991 H         1 SUN         0.3018 
     46 H17         0.2464  -10.5884   -2.7923 H         1 SUN         0.0585 
     47 H18         2.0120  -10.8707   -2.6206 H         1 SUN         0.0585 
     48 H19         1.2536  -10.8894   -4.2488 H         1 SUN         0.0585 
     49 H20         0.3136   -5.3200   -1.7875 H         1 SUN         0.1490 
     50 H21        -1.2640   -3.3618   -1.2888 H         1 SUN         0.1535 
     51 H22        -4.2956   -1.2275   -3.4894 H         1 SUN         0.1524 
     52 H23        -3.9128   -2.6682   -5.4860 H         1 SUN         0.1471 
     53 H25         2.6200   -4.8198   -3.9639 H         1 SUN         0.0518 
     54 H26         3.3154   -5.8421   -5.2670 H         1 SUN         0.0518 
     55 H27         4.0738   -5.8236   -3.6388 H         1 SUN         0.0518 
     56 H56         7.1548   -9.2339   -7.9525 H         1 SUN         0.0000 
@<TRIPOS>BOND
     1    1    2 1    
     2    1   30 1    
     3    1   31 1    
     4    1   32 1    
     5    2    3 1    
     6    2   33 1    
     7    2   34 1    
     8    3    4 1    
     9    3    6 1    
    10    3   56 1    
    11    4    5 1    
    12    4   35 1    
    13    4   36 1    
    14    5   37 1    
    15    5   38 1    
    16    5   39 1    
    17    6    7 1    
    18    6   40 1    
    19    6   41 1    
    20    7    8 1    
    21    7   42 1    
    22    7   43 1    
    23    8    9 am   BACKBONE|DICT|INTERRES
    24    8   44 1    
    25    9   10 2    
    26    9   11 1    
    27   11   15 ar   
    28   11   12 ar   
    29   12   13 ar   
    30   12   29 1    
    31   13   14 ar   
    32   13   17 1    
    33   14   15 ar   
    34   14   45 1    
    35   15   16 1    
    36   16   46 1    
    37   16   47 1    
    38   16   48 1    
    39   17   18 2    
    40   17   49 1    
    41   18   26 1    
    42   18   19 1    
    43   19   24 ar   
    44   19   20 ar   
    45   20   21 ar   
    46   20   50 1    
    47   21   22 ar   
    48   21   28 1    
    49   22   23 ar   
    50   22   51 1    
    51   23   24 ar   
    52   23   52 1    
    53   24   25 1    
    54   25   26 2    
    55   26   27 1    
    56   29   53 1    
    57   29   54 1    
    58   29   55 1    
@<TRIPOS>SUBSTRUCTURE
     1 SUN         1 GROUP             0       ****    0 ROOT    
