@<TRIPOS>MOLECULE
3-[(3~{R},4~{R})-4-methyl-3-[methyl(7~{H}-pyrrolo[2,3-d]pyrimidin-4-yl)amino]-1-piperidyl]-3-oxo-propanenitrile
   43    45     0     0     0
SMALL
USER_CHARGES

@<TRIPOS>ATOM
      1 C1          2.5669    1.1910    0.8965 C.3       1 TOF        -0.0887
      2 C2          1.8825   -0.1814    0.8419 C.3       1 TOF        -0.0876
      3 H1          2.5265   -0.8980    1.3473 H         1 TOF         0.0583
      4 C3          1.7209   -0.6562   -0.6136 C.3       1 TOF        -0.0925
      5 C4          0.6308    0.1090   -1.3655 C.3       1 TOF         0.0977
      6 N1         -0.6384    0.0903   -0.6269 N.am      1 TOF        -0.4765
      7 C5         -0.5590    0.5559    0.7605 C.3       1 TOF         0.0793
      8 C6          0.5062   -0.2206    1.5380 C.3       1 TOF         0.2461
      9 H2          0.1793   -1.2813    1.6035 H         1 TOF         0.0781
     10 N2          0.5946    0.2769    2.8937 N.pl3     1 TOF        -0.8420
     11 C7          0.2681    1.6788    3.1398 C.3       1 TOF         0.2248
     12 C8          0.9694   -0.5604    3.9488 C.ar      1 TOF         0.7405
     13 N3          2.1785   -1.1673    3.9270 N.ar      1 TOF        -0.7445
     14 C9          2.4926   -1.9664    4.9715 C.ar      1 TOF         0.6594
     15 N4          1.7561   -2.2556    6.0635 N.ar      1 TOF        -0.7117
     16 C10         0.5696   -1.6244    6.0269 C.ar      1 TOF         0.5797
     17 C11         0.1108   -0.7774    5.0255 C.ar      1 TOF        -0.3442
     18 C12        -1.1851   -0.3471    5.4093 C.2       1 TOF        -0.1565
     19 C13        -1.4760   -0.9370    6.6211 C.2       1 TOF        -0.0072
     20 N5         -0.4043   -1.7108    6.9861 N.pl3     1 TOF        -0.6765
     21 C14        -1.8775   -0.2535   -1.1690 C.2       1 TOF         0.6655
     22 O1         -2.9337   -0.2631   -0.5315 O.2       1 TOF        -0.5809
     23 C15        -1.8952   -0.6362   -2.6275 C.3       1 TOF        -0.0856
     24 C16        -3.2576   -0.9632   -3.0278 C.1       1 TOF         0.2183
     25 N6         -4.3369   -1.2270   -3.3627 N.1       1 TOF        -0.3433
     26 H3          1.9528    1.9469    0.3981 H         1 TOF         0.0355
     27 H4          2.7219    1.5024    1.9339 H         1 TOF         0.0355
     28 H5          3.5404    1.1551    0.3985 H         1 TOF         0.0355
     29 H6          2.6780   -0.5423   -1.1508 H         1 TOF         0.0522
     30 H7          1.4858   -1.7333   -0.6331 H         1 TOF         0.0522
     31 H8          0.9610    1.1370   -1.5456 H         1 TOF         0.0439
     32 H9          0.4451   -0.3500   -2.3440 H         1 TOF         0.0439
     33 H10        -0.3591    1.6274    0.8194 H         1 TOF         0.0712
     34 H11        -1.5458    0.3880    1.2078 H         1 TOF         0.0712
     35 H12         0.3842    1.8873    4.1986 H         1 TOF         0.0366
     36 H13        -0.7580    1.8627    2.8368 H         1 TOF         0.0366
     37 H14         0.9407    2.3062    2.5633 H         1 TOF         0.0366
     38 H15         3.4684   -2.4377    4.9240 H         1 TOF         0.0535
     39 H16        -1.8408    0.3204    4.8672 H         1 TOF         0.1606
     40 H17        -2.3496   -0.8750    7.2546 H         1 TOF         0.1712
     41 H18        -0.3417   -2.2593    7.8325 H         1 TOF         0.4682
     42 H19        -1.5076    0.2103   -3.1909 H         1 TOF         0.0930
     43 H20        -1.2296   -1.4885   -2.7485 H         1 TOF         0.0930
@<TRIPOS>BOND
     1    1    2 1
     2    2    3 1
     3    2    8 1
     4    2    4 1
     5    4    5 1
     6    5    6 1
     7    6    7 1
     8    7    8 1
     9    8    9 1
    10    8   10 1
    11   10   11 1
    12   10   12 1
    13   12   17 ar
    14   12   13 ar
    15   13   14 ar
    16   14   15 ar
    17   15   16 ar
    18   16   20 1
    19   16   17 ar
    20   17   18 1
    21   18   19 2
    22   19   20 1
    23    6   21 am
    24   21   22 2
    25   21   23 1
    26   23   24 1
    27   24   25 3
    28    1   26 1
    29    1   27 1
    30    1   28 1
    31    4   29 1
    32    4   30 1
    33    5   31 1
    34    5   32 1
    35    7   33 1
    36    7   34 1
    37   11   35 1
    38   11   36 1
    39   11   37 1
    40   14   38 1
    41   18   39 1
    42   19   40 1
    43   20   41 1
    44   23   42 1
    45   23   43 1
