3-[(3~{R},4~{R})-4-methyl-3-[methyl(7~{H}-pyrrolo[2,3-d]pyrimidin-4-yl)amino]-1-piperidyl]-3-oxo-propanenitrile
                    3D
 Structure written by MMmdl.
 43 45  0  0  1  0            999 V2000
    2.5669    1.1910    0.8965 C   0  0  0  0  0  0
    1.8825   -0.1814    0.8419 C   0  0  2  0  0  0
    2.5528   -0.8555    1.3954 H   0  0  0  0  0  0
    1.7209   -0.6562   -0.6136 C   0  0  0  0  0  0
    0.6308    0.1090   -1.3655 C   0  0  0  0  0  0
   -0.6384    0.0903   -0.6269 N   0  0  0  0  0  0
   -0.5590    0.5559    0.7605 C   0  0  0  0  0  0
    0.5062   -0.2206    1.5380 C   0  0  2  0  0  0
    0.1872   -1.2691    1.6321 H   0  0  0  0  0  0
    0.5946    0.2769    2.8937 N   0  0  0  0  0  0
    0.2681    1.6788    3.1398 C   0  0  0  0  0  0
    0.9693   -0.5604    3.9488 C   0  0  0  0  0  0
    2.1785   -1.1673    3.9269 N   0  0  0  0  0  0
    2.4926   -1.9664    4.9714 C   0  0  0  0  0  0
    1.7561   -2.2557    6.0635 N   0  0  0  0  0  0
    0.5696   -1.6245    6.0268 C   0  0  0  0  0  0
    0.1108   -0.7774    5.0255 C   0  0  0  0  0  0
   -1.1851   -0.3471    5.4093 C   0  0  0  0  0  0
   -1.4760   -0.9370    6.6211 C   0  0  0  0  0  0
   -0.4043   -1.7109    6.9861 N   0  0  0  0  0  0
   -1.8775   -0.2535   -1.1690 C   0  0  0  0  0  0
   -2.9337   -0.2631   -0.5315 O   0  0  0  0  0  0
   -1.8952   -0.6362   -2.6275 C   0  0  0  0  0  0
   -3.2576   -0.9632   -3.0278 C   0  0  0  0  0  0
   -4.3369   -1.2270   -3.3626 N   0  0  0  0  0  0
    3.5375    1.1374    0.3816 H   0  0  0  0  0  0
    2.7241    1.4808    1.9459 H   0  0  0  0  0  0
    1.9297    1.9384    0.4011 H   0  0  0  0  0  0
    2.6682   -0.5116   -1.1538 H   0  0  0  0  0  0
    1.4523   -1.7228   -0.6237 H   0  0  0  0  0  0
    0.9431    1.1552   -1.4993 H   0  0  0  0  0  0
    0.4702   -0.3544   -2.3501 H   0  0  0  0  0  0
   -0.2977    1.6243    0.7743 H   0  0  0  0  0  0
   -1.5320    0.4100    1.2525 H   0  0  0  0  0  0
    0.3831    1.8994    4.2113 H   0  0  0  0  0  0
   -0.7710    1.8722    2.8350 H   0  0  0  0  0  0
    0.9463    2.3207    2.5584 H   0  0  0  0  0  0
    3.4684   -2.4378    4.9240 H   0  0  0  0  0  0
   -1.8408    0.3204    4.8672 H   0  0  0  0  0  0
   -2.3496   -0.8751    7.2546 H   0  0  0  0  0  0
   -0.2454   -2.3371    7.8764 H   0  0  0  0  0  0
   -1.5277    0.2061   -3.2321 H   0  0  0  0  0  0
   -1.2470   -1.5109   -2.7850 H   0  0  0  0  0  0
  1  2  1  0  0  0
  1 26  1  0  0  0
  1 27  1  0  0  0
  1 28  1  0  0  0
  2  3  1  0  0  0
  2  8  1  0  0  0
  2  4  1  0  0  0
  4  5  1  0  0  0
  4 29  1  0  0  0
  4 30  1  0  0  0
  5  6  1  0  0  0
  5 31  1  0  0  0
  5 32  1  0  0  0
  6  7  1  0  0  0
  6 21  1  0  0  0
  7  8  1  0  0  0
  7 33  1  0  0  0
  7 34  1  0  0  0
  8  9  1  0  0  0
  8 10  1  0  0  0
 10 11  1  0  0  0
 10 12  1  0  0  0
 11 35  1  0  0  0
 11 36  1  0  0  0
 11 37  1  0  0  0
 12 17  2  0  0  0
 12 13  1  0  0  0
 13 14  2  0  0  0
 14 15  1  0  0  0
 14 38  1  0  0  0
 15 16  2  0  0  0
 16 20  1  0  0  0
 16 17  1  0  0  0
 17 18  1  0  0  0
 18 19  2  0  0  0
 18 39  1  0  0  0
 19 20  1  0  0  0
 19 40  1  0  0  0
 20 41  1  0  0  0
 21 22  2  0  0  0
 21 23  1  0  0  0
 23 24  1  0  0  0
 23 42  1  0  0  0
 23 43  1  0  0  0
 24 25  3  0  0  0
M  END
> <s_m_source_file>
/Users/andrea/Development/mcce-charges/epik_inhibitors/output/Tofacitinib/Tofacitinib-input.mol2

> <i_m_source_file_index>
1

> <r_lp_tautomer_probability>
0.999995209775946

> <r_epik_Ionization_Penalty>
  0.0022

> <r_epik_Ionization_Penalty_Charging>
  0.0000

> <r_epik_Ionization_Penalty_Neutral>
  0.0022

> <r_epik_State_Penalty>
  0.0017

> <i_epik_Tot_Q>
0

$$$$
3-[(3~{R},4~{R})-4-methyl-3-[methyl(7~{H}-pyrrolo[2,3-d]pyrimidin-4-yl)amino]-1-piperidyl]-3-oxo-propanenitrile
                    3D
 Structure written by MMmdl.
 44 46  0  0  1  0            999 V2000
    2.5669    1.1910    0.8965 C   0  0  0  0  0  0
    1.8825   -0.1814    0.8419 C   0  0  2  0  0  0
    2.5528   -0.8555    1.3954 H   0  0  0  0  0  0
    1.7209   -0.6562   -0.6136 C   0  0  0  0  0  0
    0.6308    0.1090   -1.3655 C   0  0  0  0  0  0
   -0.6384    0.0903   -0.6269 N   0  0  0  0  0  0
   -0.5590    0.5559    0.7605 C   0  0  0  0  0  0
    0.5062   -0.2206    1.5380 C   0  0  2  0  0  0
    0.1872   -1.2691    1.6321 H   0  0  0  0  0  0
    0.5946    0.2769    2.8937 N   0  0  0  0  0  0
    0.2681    1.6788    3.1398 C   0  0  0  0  0  0
    0.9693   -0.5604    3.9488 C   0  0  0  0  0  0
    2.1785   -1.1673    3.9269 N   0  3  0  0  0  0
    2.4926   -1.9664    4.9714 C   0  0  0  0  0  0
    1.7561   -2.2557    6.0635 N   0  0  0  0  0  0
    0.5696   -1.6245    6.0268 C   0  0  0  0  0  0
    0.1108   -0.7774    5.0255 C   0  0  0  0  0  0
   -1.1851   -0.3471    5.4093 C   0  0  0  0  0  0
   -1.4760   -0.9370    6.6211 C   0  0  0  0  0  0
   -0.4043   -1.7109    6.9861 N   0  0  0  0  0  0
   -1.8775   -0.2535   -1.1690 C   0  0  0  0  0  0
   -2.9337   -0.2631   -0.5315 O   0  0  0  0  0  0
   -1.8952   -0.6362   -2.6275 C   0  0  0  0  0  0
   -3.2576   -0.9632   -3.0278 C   0  0  0  0  0  0
   -4.3369   -1.2270   -3.3626 N   0  0  0  0  0  0
    3.5375    1.1374    0.3816 H   0  0  0  0  0  0
    2.7241    1.4808    1.9459 H   0  0  0  0  0  0
    1.9297    1.9384    0.4011 H   0  0  0  0  0  0
    2.6682   -0.5116   -1.1538 H   0  0  0  0  0  0
    1.4523   -1.7228   -0.6237 H   0  0  0  0  0  0
    0.9431    1.1552   -1.4993 H   0  0  0  0  0  0
    0.4702   -0.3544   -2.3501 H   0  0  0  0  0  0
   -0.2977    1.6243    0.7743 H   0  0  0  0  0  0
   -1.5320    0.4100    1.2525 H   0  0  0  0  0  0
    0.3831    1.8994    4.2113 H   0  0  0  0  0  0
   -0.7710    1.8722    2.8350 H   0  0  0  0  0  0
    0.9463    2.3207    2.5584 H   0  0  0  0  0  0
    3.4684   -2.4378    4.9240 H   0  0  0  0  0  0
   -1.8408    0.3204    4.8672 H   0  0  0  0  0  0
   -2.3496   -0.8751    7.2546 H   0  0  0  0  0  0
   -0.2454   -2.3371    7.8764 H   0  0  0  0  0  0
   -1.5277    0.2061   -3.2321 H   0  0  0  0  0  0
   -1.2470   -1.5109   -2.7850 H   0  0  0  0  0  0
    2.8620   -1.0013    3.0811 H   0  0  0  0  0  0
  1  2  1  0  0  0
  1 26  1  0  0  0
  1 27  1  0  0  0
  1 28  1  0  0  0
  2  3  1  0  0  0
  2  8  1  0  0  0
  2  4  1  0  0  0
  4  5  1  0  0  0
  4 29  1  0  0  0
  4 30  1  0  0  0
  5  6  1  0  0  0
  5 31  1  0  0  0
  5 32  1  0  0  0
  6  7  1  0  0  0
  6 21  1  0  0  0
  7  8  1  0  0  0
  7 33  1  0  0  0
  7 34  1  0  0  0
  8  9  1  0  0  0
  8 10  1  0  0  0
 10 11  1  0  0  0
 10 12  1  0  0  0
 11 35  1  0  0  0
 11 36  1  0  0  0
 11 37  1  0  0  0
 12 17  2  0  0  0
 12 13  1  0  0  0
 13 14  2  0  0  0
 13 44  1  0  0  0
 14 15  1  0  0  0
 14 38  1  0  0  0
 15 16  2  0  0  0
 16 20  1  0  0  0
 16 17  1  0  0  0
 17 18  1  0  0  0
 18 19  2  0  0  0
 18 39  1  0  0  0
 19 20  1  0  0  0
 19 40  1  0  0  0
 20 41  1  0  0  0
 21 22  2  0  0  0
 21 23  1  0  0  0
 23 24  1  0  0  0
 23 42  1  0  0  0
 23 43  1  0  0  0
 24 25  3  0  0  0
M  CHG  1  13   1
M  END
> <s_m_source_file>
/Users/andrea/Development/mcce-charges/epik_inhibitors/output/Tofacitinib/Tofacitinib-input.mol2

> <i_m_source_file_index>
1

> <r_epik_Ionization_Penalty>
  4.4609

> <r_epik_Ionization_Penalty_Charging>
  4.4609

> <r_epik_Ionization_Penalty_Neutral>
  0.0000

> <r_epik_State_Penalty>
  3.7367

> <i_epik_Tot_Q>
1

$$$$
3-[(3~{R},4~{R})-4-methyl-3-[methyl(7~{H}-pyrrolo[2,3-d]pyrimidin-4-yl)amino]-1-piperidyl]-3-oxo-propanenitrile
                    3D
 Structure written by MMmdl.
 44 46  0  0  1  0            999 V2000
    2.5669    1.1910    0.8965 C   0  0  0  0  0  0
    1.8825   -0.1814    0.8419 C   0  0  2  0  0  0
    2.5528   -0.8555    1.3954 H   0  0  0  0  0  0
    1.7209   -0.6562   -0.6136 C   0  0  0  0  0  0
    0.6308    0.1090   -1.3655 C   0  0  0  0  0  0
   -0.6384    0.0903   -0.6269 N   0  0  0  0  0  0
   -0.5590    0.5559    0.7605 C   0  0  0  0  0  0
    0.5062   -0.2206    1.5380 C   0  0  2  0  0  0
    0.1872   -1.2691    1.6321 H   0  0  0  0  0  0
    0.5946    0.2769    2.8937 N   0  0  0  0  0  0
    0.2681    1.6788    3.1398 C   0  0  0  0  0  0
    0.9693   -0.5604    3.9488 C   0  0  0  0  0  0
    2.1785   -1.1673    3.9269 N   0  0  0  0  0  0
    2.4926   -1.9664    4.9714 C   0  0  0  0  0  0
    1.7561   -2.2557    6.0635 N   0  3  0  0  0  0
    0.5696   -1.6245    6.0268 C   0  0  0  0  0  0
    0.1108   -0.7774    5.0255 C   0  0  0  0  0  0
   -1.1851   -0.3471    5.4093 C   0  0  0  0  0  0
   -1.4760   -0.9370    6.6211 C   0  0  0  0  0  0
   -0.4043   -1.7109    6.9861 N   0  0  0  0  0  0
   -1.8775   -0.2535   -1.1690 C   0  0  0  0  0  0
   -2.9337   -0.2631   -0.5315 O   0  0  0  0  0  0
   -1.8952   -0.6362   -2.6275 C   0  0  0  0  0  0
   -3.2576   -0.9632   -3.0278 C   0  0  0  0  0  0
   -4.3369   -1.2270   -3.3626 N   0  0  0  0  0  0
    3.5375    1.1374    0.3816 H   0  0  0  0  0  0
    2.7241    1.4808    1.9459 H   0  0  0  0  0  0
    1.9297    1.9384    0.4011 H   0  0  0  0  0  0
    2.6682   -0.5116   -1.1538 H   0  0  0  0  0  0
    1.4523   -1.7228   -0.6237 H   0  0  0  0  0  0
    0.9431    1.1552   -1.4993 H   0  0  0  0  0  0
    0.4702   -0.3544   -2.3501 H   0  0  0  0  0  0
   -0.2977    1.6243    0.7743 H   0  0  0  0  0  0
   -1.5320    0.4100    1.2525 H   0  0  0  0  0  0
    0.3831    1.8994    4.2113 H   0  0  0  0  0  0
   -0.7710    1.8722    2.8350 H   0  0  0  0  0  0
    0.9463    2.3207    2.5584 H   0  0  0  0  0  0
    3.4684   -2.4378    4.9240 H   0  0  0  0  0  0
   -1.8408    0.3204    4.8672 H   0  0  0  0  0  0
   -2.3496   -0.8751    7.2546 H   0  0  0  0  0  0
   -0.2454   -2.3371    7.8764 H   0  0  0  0  0  0
   -1.5277    0.2061   -3.2321 H   0  0  0  0  0  0
   -1.2470   -1.5109   -2.7850 H   0  0  0  0  0  0
    2.1564   -2.9315    6.8336 H   0  0  0  0  0  0
  1  2  1  0  0  0
  1 26  1  0  0  0
  1 27  1  0  0  0
  1 28  1  0  0  0
  2  3  1  0  0  0
  2  8  1  0  0  0
  2  4  1  0  0  0
  4  5  1  0  0  0
  4 29  1  0  0  0
  4 30  1  0  0  0
  5  6  1  0  0  0
  5 31  1  0  0  0
  5 32  1  0  0  0
  6  7  1  0  0  0
  6 21  1  0  0  0
  7  8  1  0  0  0
  7 33  1  0  0  0
  7 34  1  0  0  0
  8  9  1  0  0  0
  8 10  1  0  0  0
 10 11  1  0  0  0
 10 12  1  0  0  0
 11 35  1  0  0  0
 11 36  1  0  0  0
 11 37  1  0  0  0
 12 17  2  0  0  0
 12 13  1  0  0  0
 13 14  2  0  0  0
 14 15  1  0  0  0
 14 38  1  0  0  0
 15 16  2  0  0  0
 15 44  1  0  0  0
 16 20  1  0  0  0
 16 17  1  0  0  0
 17 18  1  0  0  0
 18 19  2  0  0  0
 18 39  1  0  0  0
 19 20  1  0  0  0
 19 40  1  0  0  0
 20 41  1  0  0  0
 21 22  2  0  0  0
 21 23  1  0  0  0
 23 24  1  0  0  0
 23 42  1  0  0  0
 23 43  1  0  0  0
 24 25  3  0  0  0
M  CHG  1  15   1
M  END
> <s_m_source_file>
/Users/andrea/Development/mcce-charges/epik_inhibitors/output/Tofacitinib/Tofacitinib-input.mol2

> <i_m_source_file_index>
1

> <r_epik_Ionization_Penalty>
  3.4110

> <r_epik_Ionization_Penalty_Charging>
  3.4110

> <r_epik_Ionization_Penalty_Neutral>
  0.0000

> <r_epik_State_Penalty>
  4.1056

> <i_epik_Tot_Q>
1

$$$$
3-[(3~{R},4~{R})-4-methyl-3-[methyl(7~{H}-pyrrolo[2,3-d]pyrimidin-4-yl)amino]-1-piperidyl]-3-oxo-propanenitrile
                    3D
 Structure written by MMmdl.
 42 44  0  0  1  0            999 V2000
    2.5669    1.1910    0.8965 C   0  0  0  0  0  0
    1.8825   -0.1814    0.8419 C   0  0  2  0  0  0
    2.5528   -0.8555    1.3954 H   0  0  0  0  0  0
    1.7209   -0.6562   -0.6136 C   0  0  0  0  0  0
    0.6308    0.1090   -1.3655 C   0  0  0  0  0  0
   -0.6384    0.0903   -0.6269 N   0  0  0  0  0  0
   -0.5590    0.5559    0.7605 C   0  0  0  0  0  0
    0.5062   -0.2206    1.5380 C   0  0  2  0  0  0
    0.1872   -1.2691    1.6321 H   0  0  0  0  0  0
    0.5946    0.2769    2.8937 N   0  0  0  0  0  0
    0.2681    1.6788    3.1398 C   0  0  0  0  0  0
    0.9693   -0.5604    3.9488 C   0  0  0  0  0  0
    2.1785   -1.1673    3.9269 N   0  0  0  0  0  0
    2.4926   -1.9664    4.9714 C   0  0  0  0  0  0
    1.7561   -2.2557    6.0635 N   0  0  0  0  0  0
    0.5696   -1.6245    6.0268 C   0  0  0  0  0  0
    0.1108   -0.7774    5.0255 C   0  0  0  0  0  0
   -1.1851   -0.3471    5.4093 C   0  0  0  0  0  0
   -1.4760   -0.9370    6.6211 C   0  0  0  0  0  0
   -0.4043   -1.7109    6.9861 N   0  5  0  0  0  0
   -1.8775   -0.2535   -1.1690 C   0  0  0  0  0  0
   -2.9337   -0.2631   -0.5315 O   0  0  0  0  0  0
   -1.8952   -0.6362   -2.6275 C   0  0  0  0  0  0
   -3.2576   -0.9632   -3.0278 C   0  0  0  0  0  0
   -4.3369   -1.2270   -3.3626 N   0  0  0  0  0  0
    3.5375    1.1374    0.3816 H   0  0  0  0  0  0
    2.7241    1.4808    1.9459 H   0  0  0  0  0  0
    1.9297    1.9384    0.4011 H   0  0  0  0  0  0
    2.6682   -0.5116   -1.1538 H   0  0  0  0  0  0
    1.4523   -1.7228   -0.6237 H   0  0  0  0  0  0
    0.9431    1.1552   -1.4993 H   0  0  0  0  0  0
    0.4702   -0.3544   -2.3501 H   0  0  0  0  0  0
   -0.2977    1.6243    0.7743 H   0  0  0  0  0  0
   -1.5320    0.4100    1.2525 H   0  0  0  0  0  0
    0.3831    1.8994    4.2113 H   0  0  0  0  0  0
   -0.7710    1.8722    2.8350 H   0  0  0  0  0  0
    0.9463    2.3207    2.5584 H   0  0  0  0  0  0
    3.4684   -2.4378    4.9240 H   0  0  0  0  0  0
   -1.8408    0.3204    4.8672 H   0  0  0  0  0  0
   -2.3496   -0.8751    7.2546 H   0  0  0  0  0  0
   -1.5277    0.2061   -3.2321 H   0  0  0  0  0  0
   -1.2470   -1.5109   -2.7850 H   0  0  0  0  0  0
  1  2  1  0  0  0
  1 26  1  0  0  0
  1 27  1  0  0  0
  1 28  1  0  0  0
  2  3  1  0  0  0
  2  8  1  0  0  0
  2  4  1  0  0  0
  4  5  1  0  0  0
  4 29  1  0  0  0
  4 30  1  0  0  0
  5  6  1  0  0  0
  5 31  1  0  0  0
  5 32  1  0  0  0
  6  7  1  0  0  0
  6 21  1  0  0  0
  7  8  1  0  0  0
  7 33  1  0  0  0
  7 34  1  0  0  0
  8  9  1  0  0  0
  8 10  1  0  0  0
 10 11  1  0  0  0
 10 12  1  0  0  0
 11 35  1  0  0  0
 11 36  1  0  0  0
 11 37  1  0  0  0
 12 17  2  0  0  0
 12 13  1  0  0  0
 13 14  2  0  0  0
 14 15  1  0  0  0
 14 38  1  0  0  0
 15 16  2  0  0  0
 16 20  1  0  0  0
 16 17  1  0  0  0
 17 18  1  0  0  0
 18 19  2  0  0  0
 18 39  1  0  0  0
 19 20  1  0  0  0
 19 40  1  0  0  0
 21 22  2  0  0  0
 21 23  1  0  0  0
 23 24  1  0  0  0
 23 41  1  0  0  0
 23 42  1  0  0  0
 24 25  3  0  0  0
M  CHG  1  20  -1
M  END
> <s_m_source_file>
/Users/andrea/Development/mcce-charges/epik_inhibitors/output/Tofacitinib/Tofacitinib-input.mol2

> <i_m_source_file_index>
1

> <r_epik_Ionization_Penalty>
  7.1707

> <r_epik_Ionization_Penalty_Charging>
  7.1704

> <r_epik_Ionization_Penalty_Neutral>
  0.0003

> <r_epik_State_Penalty>
  6.2736

> <i_epik_Tot_Q>
-1

$$$$
3-[(3~{R},4~{R})-4-methyl-3-[methyl(7~{H}-pyrrolo[2,3-d]pyrimidin-4-yl)amino]-1-piperidyl]-3-oxo-propanenitrile
                    3D
 Structure written by MMmdl.
 43 45  0  0  1  0            999 V2000
    2.5670    1.1911    0.8966 C   0  0  0  0  0  0
    1.8825   -0.1813    0.8419 C   0  0  2  0  0  0
    2.5528   -0.8554    1.3954 H   0  0  0  0  0  0
    1.7209   -0.6561   -0.6136 C   0  0  0  0  0  0
    0.6308    0.1092   -1.3655 C   0  0  0  0  0  0
   -0.6384    0.0905   -0.6269 N   0  0  0  0  0  0
   -0.5590    0.5561    0.7606 C   0  0  0  0  0  0
    0.5062   -0.2205    1.5380 C   0  0  2  0  0  0
    0.1872   -1.2690    1.6321 H   0  0  0  0  0  0
    0.5946    0.2770    2.8937 N   0  0  0  0  0  0
    0.2682    1.6789    3.1399 C   0  0  0  0  0  0
    0.9693   -0.5604    3.9488 C   0  0  0  0  0  0
    2.1787   -1.1670    3.9271 N   0  0  0  0  0  0
    2.4929   -1.9658    4.9718 C   0  0  0  0  0  0
    1.7564   -2.2550    6.0639 N   0  0  0  0  0  0
    0.5698   -1.6242    6.0270 C   0  0  0  0  0  0
    0.1108   -0.7774    5.0255 C   0  0  0  0  0  0
   -1.1851   -0.3470    5.4093 C   0  0  0  0  0  0
   -1.4760   -0.9371    6.6210 C   0  0  0  0  0  0
   -0.4042   -1.7106    6.9863 N   0  0  0  0  0  0
   -1.8775   -0.2533   -1.1690 C   0  0  0  0  0  0
   -2.9337   -0.2628   -0.5315 O   0  0  0  0  0  0
   -1.8952   -0.6359   -2.6275 C   0  0  0  0  0  0
   -3.2576   -0.9629   -3.0278 C   0  0  0  0  0  0
   -4.3369   -1.2266   -3.3626 N   0  0  0  0  0  0
    3.5375    1.1375    0.3816 H   0  0  0  0  0  0
    2.7241    1.4809    1.9460 H   0  0  0  0  0  0
    1.9298    1.9385    0.4012 H   0  0  0  0  0  0
    2.6682   -0.5114   -1.1537 H   0  0  0  0  0  0
    1.4522   -1.7227   -0.6237 H   0  0  0  0  0  0
    0.9431    1.1554   -1.4992 H   0  0  0  0  0  0
    0.4702   -0.3542   -2.3501 H   0  0  0  0  0  0
   -0.2976    1.6245    0.7744 H   0  0  0  0  0  0
   -1.5319    0.4102    1.2526 H   0  0  0  0  0  0
    0.3831    1.8994    4.2114 H   0  0  0  0  0  0
   -0.7709    1.8723    2.8351 H   0  0  0  0  0  0
    0.9464    2.3208    2.5585 H   0  0  0  0  0  0
    3.4030   -2.3654    4.8623 H   0  0  0  0  0  0
   -1.8516    0.2592    4.9756 H   0  0  0  0  0  0
   -2.3532   -0.7580    7.0666 H   0  0  0  0  0  0
    2.8621   -1.0010    3.0813 H   0  0  0  0  0  0
   -1.5277    0.2064   -3.2320 H   0  0  0  0  0  0
   -1.2470   -1.5106   -2.7850 H   0  0  0  0  0  0
  1  2  1  0  0  0
  1 26  1  0  0  0
  1 27  1  0  0  0
  1 28  1  0  0  0
  2  3  1  0  0  0
  2  8  1  0  0  0
  2  4  1  0  0  0
  4  5  1  0  0  0
  4 29  1  0  0  0
  4 30  1  0  0  0
  5  6  1  0  0  0
  5 31  1  0  0  0
  5 32  1  0  0  0
  6  7  1  0  0  0
  6 21  1  0  0  0
  7  8  1  0  0  0
  7 33  1  0  0  0
  7 34  1  0  0  0
  8  9  1  0  0  0
  8 10  1  0  0  0
 10 11  1  0  0  0
 10 12  1  0  0  0
 11 35  1  0  0  0
 11 36  1  0  0  0
 11 37  1  0  0  0
 12 17  2  0  0  0
 12 13  1  0  0  0
 13 41  1  0  0  0
 13 14  1  0  0  0
 14 38  1  0  0  0
 14 15  2  0  0  0
 15 16  1  0  0  0
 16 17  1  0  0  0
 16 20  2  0  0  0
 17 18  1  0  0  0
 18 19  2  0  0  0
 18 39  1  0  0  0
 19 40  1  0  0  0
 19 20  1  0  0  0
 21 22  2  0  0  0
 21 23  1  0  0  0
 23 24  1  0  0  0
 23 42  1  0  0  0
 23 43  1  0  0  0
 24 25  3  0  0  0
M  END
> <s_m_source_file>
/Users/andrea/Development/mcce-charges/epik_inhibitors/output/Tofacitinib/Tofacitinib-input.mol2

> <i_m_source_file_index>
1

> <r_lp_tautomer_probability>
4.67997758175143e-06

> <r_epik_Ionization_Penalty>
 11.2506

> <r_epik_Ionization_Penalty_Charging>
  0.0000

> <r_epik_Ionization_Penalty_Neutral>
 11.2506

> <r_epik_State_Penalty>
  8.4822

> <i_epik_Tot_Q>
0

$$$$
3-[(3~{R},4~{R})-4-methyl-3-[methyl(7~{H}-pyrrolo[2,3-d]pyrimidin-4-yl)amino]-1-piperidyl]-3-oxo-propanenitrile
                    3D
 Structure written by MMmdl.
 42 44  0  0  1  0            999 V2000
    2.5669    1.1910    0.8965 C   0  0  0  0  0  0
    1.8825   -0.1814    0.8419 C   0  0  2  0  0  0
    2.5528   -0.8555    1.3954 H   0  0  0  0  0  0
    1.7209   -0.6562   -0.6136 C   0  0  0  0  0  0
    0.6308    0.1090   -1.3655 C   0  0  0  0  0  0
   -0.6384    0.0903   -0.6269 N   0  0  0  0  0  0
   -0.5590    0.5559    0.7605 C   0  0  0  0  0  0
    0.5062   -0.2206    1.5380 C   0  0  2  0  0  0
    0.1872   -1.2691    1.6321 H   0  0  0  0  0  0
    0.5946    0.2769    2.8937 N   0  0  0  0  0  0
    0.2681    1.6788    3.1398 C   0  0  0  0  0  0
    0.9693   -0.5604    3.9488 C   0  0  0  0  0  0
    2.1785   -1.1673    3.9269 N   0  0  0  0  0  0
    2.4926   -1.9664    4.9714 C   0  0  0  0  0  0
    1.7561   -2.2557    6.0635 N   0  0  0  0  0  0
    0.5696   -1.6245    6.0268 C   0  0  0  0  0  0
    0.1108   -0.7774    5.0255 C   0  0  0  0  0  0
   -1.1851   -0.3471    5.4093 C   0  0  0  0  0  0
   -1.4760   -0.9370    6.6211 C   0  0  0  0  0  0
   -0.4043   -1.7109    6.9861 N   0  0  0  0  0  0
   -1.8775   -0.2535   -1.1690 C   0  0  0  0  0  0
   -2.9337   -0.2631   -0.5315 O   0  5  0  0  0  0
   -1.8952   -0.6362   -2.6275 C   0  0  0  0  0  0
   -3.2576   -0.9632   -3.0278 C   0  0  0  0  0  0
   -4.3369   -1.2270   -3.3626 N   0  0  0  0  0  0
    3.5375    1.1374    0.3816 H   0  0  0  0  0  0
    2.7241    1.4808    1.9459 H   0  0  0  0  0  0
    1.9297    1.9384    0.4011 H   0  0  0  0  0  0
    2.6682   -0.5116   -1.1538 H   0  0  0  0  0  0
    1.4523   -1.7228   -0.6237 H   0  0  0  0  0  0
    0.9431    1.1552   -1.4993 H   0  0  0  0  0  0
    0.4702   -0.3544   -2.3501 H   0  0  0  0  0  0
   -0.2977    1.6243    0.7743 H   0  0  0  0  0  0
   -1.5320    0.4100    1.2525 H   0  0  0  0  0  0
    0.3831    1.8994    4.2113 H   0  0  0  0  0  0
   -0.7710    1.8722    2.8350 H   0  0  0  0  0  0
    0.9463    2.3207    2.5584 H   0  0  0  0  0  0
    3.4684   -2.4378    4.9240 H   0  0  0  0  0  0
   -1.8408    0.3204    4.8672 H   0  0  0  0  0  0
   -2.3496   -0.8751    7.2546 H   0  0  0  0  0  0
   -0.2454   -2.3371    7.8764 H   0  0  0  0  0  0
   -0.9608   -0.6346   -3.2079 H   0  0  0  0  0  0
  1  2  1  0  0  0
  1 26  1  0  0  0
  1 27  1  0  0  0
  1 28  1  0  0  0
  2  3  1  0  0  0
  2  8  1  0  0  0
  2  4  1  0  0  0
  4  5  1  0  0  0
  4 29  1  0  0  0
  4 30  1  0  0  0
  5  6  1  0  0  0
  5 31  1  0  0  0
  5 32  1  0  0  0
  6  7  1  0  0  0
  6 21  1  0  0  0
  7  8  1  0  0  0
  7 33  1  0  0  0
  7 34  1  0  0  0
  8  9  1  0  0  0
  8 10  1  0  0  0
 10 11  1  0  0  0
 10 12  1  0  0  0
 11 35  1  0  0  0
 11 36  1  0  0  0
 11 37  1  0  0  0
 12 17  2  0  0  0
 12 13  1  0  0  0
 13 14  2  0  0  0
 14 15  1  0  0  0
 14 38  1  0  0  0
 15 16  2  0  0  0
 16 20  1  0  0  0
 16 17  1  0  0  0
 17 18  1  0  0  0
 18 19  2  0  0  0
 18 39  1  0  0  0
 19 20  1  0  0  0
 19 40  1  0  0  0
 20 41  1  0  0  0
 21 22  1  0  0  0
 21 23  2  0  0  0
 23 24  1  0  0  0
 23 42  1  0  0  0
 24 25  3  0  0  0
M  CHG  1  22  -1
M  END
> <s_m_source_file>
/Users/andrea/Development/mcce-charges/epik_inhibitors/output/Tofacitinib/Tofacitinib-input.mol2

> <i_m_source_file_index>
1

> <r_epik_Ionization_Penalty>
  8.5672

> <r_epik_Ionization_Penalty_Charging>
  8.5636

> <r_epik_Ionization_Penalty_Neutral>
  0.0036

> <r_epik_State_Penalty>
  9.1616

> <i_epik_Tot_Q>
-1

$$$$
3-[(3~{R},4~{R})-4-methyl-3-[methyl(7~{H}-pyrrolo[2,3-d]pyrimidin-4-yl)amino]-1-piperidyl]-3-oxo-propanenitrile
                    3D
 Structure written by MMmdl.
 43 45  0  0  1  0            999 V2000
    2.5670    1.1911    0.8966 C   0  0  0  0  0  0
    1.8825   -0.1813    0.8419 C   0  0  2  0  0  0
    2.5528   -0.8554    1.3954 H   0  0  0  0  0  0
    1.7209   -0.6561   -0.6136 C   0  0  0  0  0  0
    0.6308    0.1092   -1.3655 C   0  0  0  0  0  0
   -0.6384    0.0905   -0.6269 N   0  0  0  0  0  0
   -0.5590    0.5561    0.7606 C   0  0  0  0  0  0
    0.5062   -0.2205    1.5380 C   0  0  2  0  0  0
    0.1872   -1.2690    1.6321 H   0  0  0  0  0  0
    0.5946    0.2770    2.8937 N   0  0  0  0  0  0
    0.2682    1.6789    3.1399 C   0  0  0  0  0  0
    0.9693   -0.5604    3.9488 C   0  0  0  0  0  0
    2.1787   -1.1670    3.9271 N   0  0  0  0  0  0
    2.4929   -1.9658    4.9718 C   0  0  0  0  0  0
    1.7564   -2.2550    6.0639 N   0  0  0  0  0  0
    0.5698   -1.6242    6.0270 C   0  0  0  0  0  0
    0.1108   -0.7774    5.0255 C   0  0  0  0  0  0
   -1.1851   -0.3470    5.4093 C   0  0  0  0  0  0
   -1.4760   -0.9371    6.6210 C   0  0  0  0  0  0
   -0.4042   -1.7106    6.9863 N   0  0  0  0  0  0
   -1.8775   -0.2533   -1.1690 C   0  0  0  0  0  0
   -2.9337   -0.2628   -0.5315 O   0  0  0  0  0  0
   -1.8952   -0.6359   -2.6275 C   0  0  0  0  0  0
   -3.2576   -0.9629   -3.0278 C   0  0  0  0  0  0
   -4.3369   -1.2266   -3.3626 N   0  0  0  0  0  0
    3.5375    1.1375    0.3816 H   0  0  0  0  0  0
    2.7241    1.4809    1.9460 H   0  0  0  0  0  0
    1.9298    1.9385    0.4012 H   0  0  0  0  0  0
    2.6682   -0.5114   -1.1537 H   0  0  0  0  0  0
    1.4522   -1.7227   -0.6237 H   0  0  0  0  0  0
    0.9431    1.1554   -1.4992 H   0  0  0  0  0  0
    0.4702   -0.3542   -2.3501 H   0  0  0  0  0  0
   -0.2976    1.6245    0.7744 H   0  0  0  0  0  0
   -1.5319    0.4102    1.2526 H   0  0  0  0  0  0
    0.3831    1.8994    4.2114 H   0  0  0  0  0  0
   -0.7709    1.8723    2.8351 H   0  0  0  0  0  0
    0.9464    2.3208    2.5585 H   0  0  0  0  0  0
    3.3766   -2.4333    4.9956 H   0  0  0  0  0  0
   -1.8516    0.2592    4.9756 H   0  0  0  0  0  0
   -2.3532   -0.7580    7.0666 H   0  0  0  0  0  0
    2.1569   -2.9306    6.8342 H   0  0  0  0  0  0
   -1.5277    0.2064   -3.2320 H   0  0  0  0  0  0
   -1.2470   -1.5106   -2.7850 H   0  0  0  0  0  0
  1  2  1  0  0  0
  1 26  1  0  0  0
  1 27  1  0  0  0
  1 28  1  0  0  0
  2  3  1  0  0  0
  2  8  1  0  0  0
  2  4  1  0  0  0
  4  5  1  0  0  0
  4 29  1  0  0  0
  4 30  1  0  0  0
  5  6  1  0  0  0
  5 31  1  0  0  0
  5 32  1  0  0  0
  6  7  1  0  0  0
  6 21  1  0  0  0
  7  8  1  0  0  0
  7 33  1  0  0  0
  7 34  1  0  0  0
  8  9  1  0  0  0
  8 10  1  0  0  0
 10 11  1  0  0  0
 10 12  1  0  0  0
 11 35  1  0  0  0
 11 36  1  0  0  0
 11 37  1  0  0  0
 12 17  2  0  0  0
 12 13  1  0  0  0
 13 14  2  0  0  0
 14 38  1  0  0  0
 14 15  1  0  0  0
 15 41  1  0  0  0
 15 16  1  0  0  0
 16 17  1  0  0  0
 16 20  2  0  0  0
 17 18  1  0  0  0
 18 19  2  0  0  0
 18 39  1  0  0  0
 19 40  1  0  0  0
 19 20  1  0  0  0
 21 22  2  0  0  0
 21 23  1  0  0  0
 23 24  1  0  0  0
 23 42  1  0  0  0
 23 43  1  0  0  0
 24 25  3  0  0  0
M  END
> <s_m_source_file>
/Users/andrea/Development/mcce-charges/epik_inhibitors/output/Tofacitinib/Tofacitinib-input.mol2

> <i_m_source_file_index>
1

> <r_lp_tautomer_probability>
1.09999473075354e-07

> <r_epik_Ionization_Penalty>
  6.7225

> <r_epik_Ionization_Penalty_Charging>
  0.0000

> <r_epik_Ionization_Penalty_Neutral>
  6.7225

> <r_epik_State_Penalty>
 10.0929

> <i_epik_Tot_Q>
0

$$$$
3-[(3~{R},4~{R})-4-methyl-3-[methyl(7~{H}-pyrrolo[2,3-d]pyrimidin-4-yl)amino]-1-piperidyl]-3-oxo-propanenitrile
                    3D
 Structure written by MMmdl.
 44 46  0  0  1  0            999 V2000
    2.5669    1.1910    0.8965 C   0  0  0  0  0  0
    1.8825   -0.1814    0.8419 C   0  0  2  0  0  0
    2.5528   -0.8555    1.3954 H   0  0  0  0  0  0
    1.7209   -0.6562   -0.6136 C   0  0  0  0  0  0
    0.6308    0.1090   -1.3655 C   0  0  0  0  0  0
   -0.6384    0.0903   -0.6269 N   0  0  0  0  0  0
   -0.5590    0.5559    0.7605 C   0  0  0  0  0  0
    0.5062   -0.2206    1.5380 C   0  0  2  0  0  0
    0.1872   -1.2691    1.6321 H   0  0  0  0  0  0
    0.5946    0.2769    2.8937 N   0  3  1  0  0  0
    0.2681    1.6788    3.1398 C   0  0  0  0  0  0
    0.9693   -0.5604    3.9488 C   0  0  0  0  0  0
    2.1785   -1.1673    3.9269 N   0  0  0  0  0  0
    2.4926   -1.9664    4.9714 C   0  0  0  0  0  0
    1.7561   -2.2557    6.0635 N   0  0  0  0  0  0
    0.5696   -1.6245    6.0268 C   0  0  0  0  0  0
    0.1108   -0.7774    5.0255 C   0  0  0  0  0  0
   -1.1851   -0.3471    5.4093 C   0  0  0  0  0  0
   -1.4760   -0.9370    6.6211 C   0  0  0  0  0  0
   -0.4043   -1.7109    6.9861 N   0  0  0  0  0  0
   -1.8775   -0.2535   -1.1690 C   0  0  0  0  0  0
   -2.9337   -0.2631   -0.5315 O   0  0  0  0  0  0
   -1.8952   -0.6362   -2.6275 C   0  0  0  0  0  0
   -3.2576   -0.9632   -3.0278 C   0  0  0  0  0  0
   -4.3369   -1.2270   -3.3626 N   0  0  0  0  0  0
    3.5375    1.1374    0.3816 H   0  0  0  0  0  0
    2.7241    1.4808    1.9459 H   0  0  0  0  0  0
    1.9297    1.9384    0.4011 H   0  0  0  0  0  0
    2.6682   -0.5116   -1.1538 H   0  0  0  0  0  0
    1.4523   -1.7228   -0.6237 H   0  0  0  0  0  0
    0.9431    1.1552   -1.4993 H   0  0  0  0  0  0
    0.4702   -0.3544   -2.3501 H   0  0  0  0  0  0
   -0.2977    1.6243    0.7743 H   0  0  0  0  0  0
   -1.5320    0.4100    1.2525 H   0  0  0  0  0  0
    0.3831    1.8994    4.2113 H   0  0  0  0  0  0
   -0.7710    1.8722    2.8350 H   0  0  0  0  0  0
    0.9463    2.3207    2.5584 H   0  0  0  0  0  0
    3.4684   -2.4378    4.9240 H   0  0  0  0  0  0
   -1.8408    0.3204    4.8672 H   0  0  0  0  0  0
   -2.3496   -0.8751    7.2546 H   0  0  0  0  0  0
   -0.2454   -2.3371    7.8764 H   0  0  0  0  0  0
   -1.5277    0.2061   -3.2321 H   0  0  0  0  0  0
   -1.2470   -1.5109   -2.7850 H   0  0  0  0  0  0
    1.6462    0.5515    2.7243 H   0  0  0  0  0  0
  1  2  1  0  0  0
  1 26  1  0  0  0
  1 27  1  0  0  0
  1 28  1  0  0  0
  2  3  1  0  0  0
  2  8  1  0  0  0
  2  4  1  0  0  0
  4  5  1  0  0  0
  4 29  1  0  0  0
  4 30  1  0  0  0
  5  6  1  0  0  0
  5 31  1  0  0  0
  5 32  1  0  0  0
  6  7  1  0  0  0
  6 21  1  0  0  0
  7  8  1  0  0  0
  7 33  1  0  0  0
  7 34  1  0  0  0
  8  9  1  0  0  0
  8 10  1  0  0  0
 10 11  1  0  0  0
 10 12  1  0  0  0
 10 44  1  0  0  0
 11 35  1  0  0  0
 11 36  1  0  0  0
 11 37  1  0  0  0
 12 17  2  0  0  0
 12 13  1  0  0  0
 13 14  2  0  0  0
 14 15  1  0  0  0
 14 38  1  0  0  0
 15 16  2  0  0  0
 16 20  1  0  0  0
 16 17  1  0  0  0
 17 18  1  0  0  0
 18 19  2  0  0  0
 18 39  1  0  0  0
 19 20  1  0  0  0
 19 40  1  0  0  0
 20 41  1  0  0  0
 21 22  2  0  0  0
 21 23  1  0  0  0
 23 24  1  0  0  0
 23 42  1  0  0  0
 23 43  1  0  0  0
 24 25  3  0  0  0
M  CHG  1  10   1
M  END
> <s_m_source_file>
/Users/andrea/Development/mcce-charges/epik_inhibitors/output/Tofacitinib/Tofacitinib-input.mol2

> <i_m_source_file_index>
1

> <r_epik_Ionization_Penalty>
  9.2840

> <r_epik_Ionization_Penalty_Charging>
  9.2839

> <r_epik_Ionization_Penalty_Neutral>
  0.0001

> <r_epik_State_Penalty>
 11.9356

> <i_epik_Tot_Q>
1

$$$$
3-[(3~{R},4~{R})-4-methyl-3-[methyl(7~{H}-pyrrolo[2,3-d]pyrimidin-4-yl)amino]-1-piperidyl]-3-oxo-propanenitrile
                    3D
 Structure written by MMmdl.
 43 45  0  0  1  0            999 V2000
    2.5669    1.1910    0.8965 C   0  0  0  0  0  0
    1.8825   -0.1814    0.8419 C   0  0  2  0  0  0
    2.5528   -0.8555    1.3954 H   0  0  0  0  0  0
    1.7209   -0.6562   -0.6136 C   0  0  0  0  0  0
    0.6308    0.1090   -1.3655 C   0  0  0  0  0  0
   -0.6384    0.0903   -0.6269 N   0  0  0  0  0  0
   -0.5590    0.5559    0.7605 C   0  0  0  0  0  0
    0.5062   -0.2206    1.5380 C   0  0  2  0  0  0
    0.1872   -1.2691    1.6321 H   0  0  0  0  0  0
    0.5946    0.2769    2.8937 N   0  0  0  0  0  0
    0.2681    1.6788    3.1398 C   0  0  0  0  0  0
    0.9693   -0.5604    3.9488 C   0  0  0  0  0  0
    2.1785   -1.1673    3.9269 N   0  0  0  0  0  0
    2.4926   -1.9664    4.9714 C   0  0  0  0  0  0
    1.7561   -2.2557    6.0635 N   0  3  0  0  0  0
    0.5696   -1.6245    6.0268 C   0  0  0  0  0  0
    0.1108   -0.7774    5.0255 C   0  0  0  0  0  0
   -1.1851   -0.3471    5.4093 C   0  0  0  0  0  0
   -1.4760   -0.9370    6.6211 C   0  0  0  0  0  0
   -0.4043   -1.7109    6.9861 N   0  0  0  0  0  0
   -1.8775   -0.2535   -1.1690 C   0  0  0  0  0  0
   -2.9337   -0.2631   -0.5315 O   0  5  0  0  0  0
   -1.8952   -0.6362   -2.6275 C   0  0  0  0  0  0
   -3.2576   -0.9632   -3.0278 C   0  0  0  0  0  0
   -4.3369   -1.2270   -3.3626 N   0  0  0  0  0  0
    3.5375    1.1374    0.3816 H   0  0  0  0  0  0
    2.7241    1.4808    1.9459 H   0  0  0  0  0  0
    1.9297    1.9384    0.4011 H   0  0  0  0  0  0
    2.6682   -0.5116   -1.1538 H   0  0  0  0  0  0
    1.4523   -1.7228   -0.6237 H   0  0  0  0  0  0
    0.9431    1.1552   -1.4993 H   0  0  0  0  0  0
    0.4702   -0.3544   -2.3501 H   0  0  0  0  0  0
   -0.2977    1.6243    0.7743 H   0  0  0  0  0  0
   -1.5320    0.4100    1.2525 H   0  0  0  0  0  0
    0.3831    1.8994    4.2113 H   0  0  0  0  0  0
   -0.7710    1.8722    2.8350 H   0  0  0  0  0  0
    0.9463    2.3207    2.5584 H   0  0  0  0  0  0
    3.4684   -2.4378    4.9240 H   0  0  0  0  0  0
   -1.8408    0.3204    4.8672 H   0  0  0  0  0  0
   -2.3496   -0.8751    7.2546 H   0  0  0  0  0  0
   -0.2454   -2.3371    7.8764 H   0  0  0  0  0  0
   -0.9608   -0.6346   -3.2079 H   0  0  0  0  0  0
    2.1564   -2.9315    6.8336 H   0  0  0  0  0  0
  1  2  1  0  0  0
  1 26  1  0  0  0
  1 27  1  0  0  0
  1 28  1  0  0  0
  2  3  1  0  0  0
  2  8  1  0  0  0
  2  4  1  0  0  0
  4  5  1  0  0  0
  4 29  1  0  0  0
  4 30  1  0  0  0
  5  6  1  0  0  0
  5 31  1  0  0  0
  5 32  1  0  0  0
  6  7  1  0  0  0
  6 21  1  0  0  0
  7  8  1  0  0  0
  7 33  1  0  0  0
  7 34  1  0  0  0
  8  9  1  0  0  0
  8 10  1  0  0  0
 10 11  1  0  0  0
 10 12  1  0  0  0
 11 35  1  0  0  0
 11 36  1  0  0  0
 11 37  1  0  0  0
 12 17  2  0  0  0
 12 13  1  0  0  0
 13 14  2  0  0  0
 14 15  1  0  0  0
 14 38  1  0  0  0
 15 16  2  0  0  0
 15 43  1  0  0  0
 16 20  1  0  0  0
 16 17  1  0  0  0
 17 18  1  0  0  0
 18 19  2  0  0  0
 18 39  1  0  0  0
 19 20  1  0  0  0
 19 40  1  0  0  0
 20 41  1  0  0  0
 21 22  1  0  0  0
 21 23  2  0  0  0
 23 24  1  0  0  0
 23 42  1  0  0  0
 24 25  3  0  0  0
M  CHG  2  15   1  22  -1
M  END
> <s_m_source_file>
/Users/andrea/Development/mcce-charges/epik_inhibitors/output/Tofacitinib/Tofacitinib-input.mol2

> <i_m_source_file_index>
1

> <r_epik_Ionization_Penalty>
 11.6773

> <r_epik_Ionization_Penalty_Charging>
 11.6773

> <r_epik_Ionization_Penalty_Neutral>
  0.0000

> <r_epik_State_Penalty>
 12.8623

> <i_epik_Tot_Q>
0

$$$$
3-[(3~{R},4~{R})-4-methyl-3-[methyl(7~{H}-pyrrolo[2,3-d]pyrimidin-4-yl)amino]-1-piperidyl]-3-oxo-propanenitrile
                    3D
 Structure written by MMmdl.
 43 45  0  0  1  0            999 V2000
    2.5669    1.1910    0.8965 C   0  0  0  0  0  0
    1.8825   -0.1814    0.8419 C   0  0  2  0  0  0
    2.5528   -0.8555    1.3954 H   0  0  0  0  0  0
    1.7209   -0.6562   -0.6136 C   0  0  0  0  0  0
    0.6308    0.1090   -1.3655 C   0  0  0  0  0  0
   -0.6384    0.0903   -0.6269 N   0  0  0  0  0  0
   -0.5590    0.5559    0.7605 C   0  0  0  0  0  0
    0.5062   -0.2206    1.5380 C   0  0  2  0  0  0
    0.1872   -1.2691    1.6321 H   0  0  0  0  0  0
    0.5946    0.2769    2.8937 N   0  0  0  0  0  0
    0.2681    1.6788    3.1398 C   0  0  0  0  0  0
    0.9693   -0.5604    3.9488 C   0  0  0  0  0  0
    2.1785   -1.1673    3.9269 N   0  3  0  0  0  0
    2.4926   -1.9664    4.9714 C   0  0  0  0  0  0
    1.7561   -2.2557    6.0635 N   0  0  0  0  0  0
    0.5696   -1.6245    6.0268 C   0  0  0  0  0  0
    0.1108   -0.7774    5.0255 C   0  0  0  0  0  0
   -1.1851   -0.3471    5.4093 C   0  0  0  0  0  0
   -1.4760   -0.9370    6.6211 C   0  0  0  0  0  0
   -0.4043   -1.7109    6.9861 N   0  0  0  0  0  0
   -1.8775   -0.2535   -1.1690 C   0  0  0  0  0  0
   -2.9337   -0.2631   -0.5315 O   0  5  0  0  0  0
   -1.8952   -0.6362   -2.6275 C   0  0  0  0  0  0
   -3.2576   -0.9632   -3.0278 C   0  0  0  0  0  0
   -4.3369   -1.2270   -3.3626 N   0  0  0  0  0  0
    3.5375    1.1374    0.3816 H   0  0  0  0  0  0
    2.7241    1.4808    1.9459 H   0  0  0  0  0  0
    1.9297    1.9384    0.4011 H   0  0  0  0  0  0
    2.6682   -0.5116   -1.1538 H   0  0  0  0  0  0
    1.4523   -1.7228   -0.6237 H   0  0  0  0  0  0
    0.9431    1.1552   -1.4993 H   0  0  0  0  0  0
    0.4702   -0.3544   -2.3501 H   0  0  0  0  0  0
   -0.2977    1.6243    0.7743 H   0  0  0  0  0  0
   -1.5320    0.4100    1.2525 H   0  0  0  0  0  0
    0.3831    1.8994    4.2113 H   0  0  0  0  0  0
   -0.7710    1.8722    2.8350 H   0  0  0  0  0  0
    0.9463    2.3207    2.5584 H   0  0  0  0  0  0
    3.4684   -2.4378    4.9240 H   0  0  0  0  0  0
   -1.8408    0.3204    4.8672 H   0  0  0  0  0  0
   -2.3496   -0.8751    7.2546 H   0  0  0  0  0  0
   -0.2454   -2.3371    7.8764 H   0  0  0  0  0  0
   -0.9608   -0.6346   -3.2079 H   0  0  0  0  0  0
    2.8620   -1.0013    3.0811 H   0  0  0  0  0  0
  1  2  1  0  0  0
  1 26  1  0  0  0
  1 27  1  0  0  0
  1 28  1  0  0  0
  2  3  1  0  0  0
  2  8  1  0  0  0
  2  4  1  0  0  0
  4  5  1  0  0  0
  4 29  1  0  0  0
  4 30  1  0  0  0
  5  6  1  0  0  0
  5 31  1  0  0  0
  5 32  1  0  0  0
  6  7  1  0  0  0
  6 21  1  0  0  0
  7  8  1  0  0  0
  7 33  1  0  0  0
  7 34  1  0  0  0
  8  9  1  0  0  0
  8 10  1  0  0  0
 10 11  1  0  0  0
 10 12  1  0  0  0
 11 35  1  0  0  0
 11 36  1  0  0  0
 11 37  1  0  0  0
 12 17  2  0  0  0
 12 13  1  0  0  0
 13 14  2  0  0  0
 13 43  1  0  0  0
 14 15  1  0  0  0
 14 38  1  0  0  0
 15 16  2  0  0  0
 16 20  1  0  0  0
 16 17  1  0  0  0
 17 18  1  0  0  0
 18 19  2  0  0  0
 18 39  1  0  0  0
 19 20  1  0  0  0
 19 40  1  0  0  0
 20 41  1  0  0  0
 21 22  1  0  0  0
 21 23  2  0  0  0
 23 24  1  0  0  0
 23 42  1  0  0  0
 24 25  3  0  0  0
M  CHG  2  13   1  22  -1
M  END
> <s_m_source_file>
/Users/andrea/Development/mcce-charges/epik_inhibitors/output/Tofacitinib/Tofacitinib-input.mol2

> <i_m_source_file_index>
1

> <r_epik_Ionization_Penalty>
 12.7175

> <r_epik_Ionization_Penalty_Charging>
 12.7175

> <r_epik_Ionization_Penalty_Neutral>
  0.0000

> <r_epik_State_Penalty>
 13.2341

> <i_epik_Tot_Q>
0

$$$$
