MI1
                    3D
 Structure written by MMmdl.
 43 45  0  0  1  0            999 V2000
   11.4000   14.0760  -15.3490 C   0  0  1  0  0  0
   11.1110   14.1980  -16.8320 C   0  0  0  0  0  0
   10.0430   11.9040  -16.9620 C   0  0  0  0  0  0
   10.5440   11.6320  -15.5380 C   0  0  0  0  0  0
   11.7130   12.5520  -15.1220 C   0  0  1  0  0  0
    9.9090   13.3800  -17.0700 N   0  0  0  0  0  0
    8.6640   15.1600  -17.5640 O   0  0  0  0  0  0
    8.7790   13.9460  -17.4370 C   0  0  0  0  0  0
    7.5860   13.0420  -17.6590 C   0  0  0  0  0  0
    6.4020   13.8860  -17.8860 C   0  0  0  0  0  0
    5.4400   14.5060  -18.0770 N   0  0  0  0  0  0
   13.0070   11.9550  -15.7290 C   0  0  0  0  0  0
   12.6080   14.8790  -14.9290 N   0  0  0  0  0  0
   13.6000   15.3730  -15.8880 C   0  0  0  0  0  0
   12.8720   15.1980  -13.6120 C   0  0  0  0  0  0
   12.0370   14.7960  -12.5530 C   0  0  0  0  0  0
   10.7790   14.0680  -12.4890 C   0  0  0  0  0  0
   10.5020   14.0170  -11.1370 C   0  0  0  0  0  0
   11.4780   14.6740  -10.4210 N   0  0  0  0  0  0
   12.4150   15.1380  -11.2680 C   0  0  0  0  0  0
   13.5300   15.8160  -10.9460 N   0  0  0  0  0  0
   14.3090   16.1740  -12.0020 C   0  0  0  0  0  0
   14.0160   15.9020  -13.3080 N   0  0  0  0  0  0
   10.5556   14.4866  -14.7760 H   0  0  0  0  0  0
   10.9341   15.2537  -17.0854 H   0  0  0  0  0  0
   11.9714   13.8225  -17.4054 H   0  0  0  0  0  0
   10.7727   11.5157  -17.6878 H   0  0  0  0  0  0
    9.0749   11.4037  -17.1119 H   0  0  0  0  0  0
    9.7230   11.7921  -14.8236 H   0  0  0  0  0  0
   10.8957   10.5923  -15.4653 H   0  0  0  0  0  0
   11.8766   12.5459  -14.0343 H   0  0  0  0  0  0
    7.7678   12.4037  -18.5362 H   0  0  0  0  0  0
    7.4342   12.4105  -16.7712 H   0  0  0  0  0  0
   13.0708   10.8861  -15.4773 H   0  0  0  0  0  0
   13.8813   12.4813  -15.3184 H   0  0  0  0  0  0
   12.9878   12.0737  -16.8224 H   0  0  0  0  0  0
   14.3840   15.9276  -15.3516 H   0  0  0  0  0  0
   13.1094   16.0398  -16.6123 H   0  0  0  0  0  0
   14.0511   14.5223  -16.4198 H   0  0  0  0  0  0
   10.1990   13.6630  -13.3050 H   0  0  0  0  0  0
    9.6410   13.5300  -10.7020 H   0  0  0  0  0  0
   15.2230   16.7110  -11.7930 H   0  0  0  0  0  0
   11.4014   14.7475   -9.3261 H   0  0  0  0  0  0
  1  5  1  0  0  0
  1 13  1  0  0  0
  1 24  1  0  0  0
  1  2  1  0  0  0
  2 25  1  0  0  0
  2 26  1  0  0  0
  2  6  1  0  0  0
  3  4  1  0  0  0
  3 27  1  0  0  0
  3 28  1  0  0  0
  3  6  1  0  0  0
  4  5  1  0  0  0
  4 29  1  0  0  0
  4 30  1  0  0  0
  5 31  1  0  0  0
  5 12  1  0  0  0
  6  8  1  0  0  0
  7  8  2  0  0  0
  8  9  1  0  0  0
  9 32  1  0  0  0
  9 33  1  0  0  0
  9 10  1  0  0  0
 10 11  3  0  0  0
 12 34  1  0  0  0
 12 35  1  0  0  0
 12 36  1  0  0  0
 13 15  1  0  0  0
 13 14  1  0  0  0
 14 37  1  0  0  0
 14 38  1  0  0  0
 14 39  1  0  0  0
 15 23  1  0  0  0
 15 16  2  0  0  0
 16 17  1  0  0  0
 16 20  1  0  0  0
 17 18  2  0  0  0
 17 40  1  0  0  0
 18 19  1  0  0  0
 18 41  1  0  0  0
 19 43  1  0  0  0
 19 20  1  0  0  0
 20 21  2  0  0  0
 21 22  1  0  0  0
 22 42  1  0  0  0
 22 23  2  0  0  0
M  END
> <s_m_source_file>
/Users/choderaj/github/choderalab/mcce-charges/mcce-charges.jchodera/epik_inhibitors/output/Tofacitinib/Tofacitinib-input.mol2

> <i_m_source_file_index>
1

> <r_lp_tautomer_probability>
1

> <r_epik_Ionization_Penalty>
  0.0022

> <r_epik_Ionization_Penalty_Charging>
  0.0000

> <r_epik_Ionization_Penalty_Neutral>
  0.0022

> <r_epik_State_Penalty>
 -0.0000

> <i_epik_Tot_Q>
0

$$$$
