@<TRIPOS>MOLECULE
3-[(3~{R},4~{R})-4-methyl-3-[methyl(7~{H}-pyrrolo[2,3-d]pyrimidin-4-yl)amino]-1-piperidyl]-3-oxo-propanenitrile
   43    45     0     0     0
SMALL
USER_CHARGES

@<TRIPOS>ATOM
      1 C1          2.5669    1.1910    0.8965 C.3       1 <0>        -0.0958
      2 C2          1.8825   -0.1814    0.8419 C.3       1 <0>        -0.0908
      3 H1          2.5528   -0.8555    1.3954 H         1 <0>         0.0628
      4 C3          1.7209   -0.6562   -0.6136 C.3       1 <0>        -0.0923
      5 C4          0.6308    0.1090   -1.3655 C.3       1 <0>         0.0908
      6 N1         -0.6384    0.0903   -0.6269 N.am      1 <0>        -0.4825
      7 C5         -0.5590    0.5559    0.7605 C.3       1 <0>         0.0926
      8 C6          0.5062   -0.2206    1.5380 C.3       1 <0>         0.2237
      9 H2          0.1872   -1.2691    1.6321 H         1 <0>         0.0829
     10 N2          0.5946    0.2769    2.8937 N.pl3     1 <0>        -0.7943
     11 C7          0.2681    1.6788    3.1398 C.3       1 <0>         0.1973
     12 C8          0.9693   -0.5604    3.9488 C.ar      1 <0>         0.7260
     13 N3          2.1785   -1.1673    3.9269 N.ar      1 <0>        -0.7457
     14 C9          2.4926   -1.9664    4.9714 C.ar      1 <0>         0.6629
     15 N4          1.7561   -2.2557    6.0635 N.ar      1 <0>        -0.7165
     16 C10         0.5696   -1.6245    6.0268 C.ar      1 <0>         0.5861
     17 C11         0.1108   -0.7774    5.0255 C.ar      1 <0>        -0.3548
     18 C12        -1.1851   -0.3471    5.4093 C.2       1 <0>        -0.1645
     19 C13        -1.4760   -0.9370    6.6211 C.2       1 <0>        -0.0030
     20 N5         -0.4043   -1.7109    6.9861 N.pl3     1 <0>        -0.6762
     21 C14        -1.8775   -0.2535   -1.1690 C.2       1 <0>         0.6710
     22 O1         -2.9337   -0.2631   -0.5315 O.2       1 <0>        -0.5762
     23 C15        -1.8952   -0.6362   -2.6275 C.3       1 <0>        -0.0888
     24 C16        -3.2576   -0.9632   -3.0278 C.1       1 <0>         0.2180
     25 N6         -4.3369   -1.2270   -3.3626 N.1       1 <0>        -0.3449
     26 H3          3.5375    1.1374    0.3816 H         1 <0>         0.0382
     27 H4          2.7241    1.4808    1.9459 H         1 <0>         0.0382
     28 H5          1.9297    1.9384    0.4011 H         1 <0>         0.0382
     29 H6          2.6682   -0.5116   -1.1538 H         1 <0>         0.0565
     30 H7          1.4523   -1.7228   -0.6237 H         1 <0>         0.0565
     31 H8          0.9431    1.1552   -1.4993 H         1 <0>         0.0621
     32 H9          0.4702   -0.3544   -2.3501 H         1 <0>         0.0621
     33 H10        -0.2977    1.6243    0.7743 H         1 <0>         0.0501
     34 H11        -1.5320    0.4100    1.2525 H         1 <0>         0.0501
     35 H12         0.3831    1.8994    4.2113 H         1 <0>         0.0384
     36 H13        -0.7710    1.8722    2.8350 H         1 <0>         0.0384
     37 H14         0.9463    2.3207    2.5584 H         1 <0>         0.0384
     38 H15         3.4684   -2.4378    4.9240 H         1 <0>         0.0547
     39 H16        -1.8408    0.3204    4.8672 H         1 <0>         0.1589
     40 H17        -2.3496   -0.8751    7.2546 H         1 <0>         0.1726
     41 H18        -0.2454   -2.3371    7.8764 H         1 <0>         0.4692
     42 H19        -1.5277    0.2061   -3.2321 H         1 <0>         0.0948
     43 H20        -1.2470   -1.5109   -2.7850 H         1 <0>         0.0948
@<TRIPOS>BOND
     1    1    2 1
     2    1   26 1
     3    1   27 1
     4    1   28 1
     5    2    3 1
     6    2    8 1
     7    2    4 1
     8    4    5 1
     9    4   29 1
    10    4   30 1
    11    5    6 1
    12    5   31 1
    13    5   32 1
    14    6    7 1
    15    6   21 am
    16    7    8 1
    17    7   33 1
    18    7   34 1
    19    8    9 1
    20    8   10 1
    21   10   11 1
    22   10   12 1
    23   11   35 1
    24   11   36 1
    25   11   37 1
    26   12   17 ar
    27   12   13 ar
    28   13   14 ar
    29   14   15 ar
    30   14   38 1
    31   15   16 ar
    32   16   20 1
    33   16   17 ar
    34   17   18 1
    35   18   19 2
    36   18   39 1
    37   19   20 1
    38   19   40 1
    39   20   41 1
    40   21   22 2
    41   21   23 1
    42   23   24 1
    43   23   42 1
    44   23   43 1
    45   24   25 3
@<TRIPOS>MOLECULE
3-[(3~{R},4~{R})-4-methyl-3-[methyl(7~{H}-pyrrolo[2,3-d]pyrimidin-3-ium-4-yl)amino]-1-piperidyl]-3-oxo-propanenitrile
   44    46     0     0     0
SMALL
USER_CHARGES

@<TRIPOS>ATOM
      1 C1          2.5669    1.1910    0.8965 C.3       1 <0>        -0.1032
      2 C2          1.8825   -0.1814    0.8419 C.3       1 <0>        -0.0801
      3 H1          2.5528   -0.8555    1.3954 H         1 <0>         0.0374
      4 C3          1.7209   -0.6562   -0.6136 C.3       1 <0>        -0.0995
      5 C4          0.6308    0.1090   -1.3655 C.3       1 <0>         0.0834
      6 N1         -0.6384    0.0903   -0.6269 N.am      1 <0>        -0.4924
      7 C5         -0.5590    0.5559    0.7605 C.3       1 <0>         0.1038
      8 C6          0.5062   -0.2206    1.5380 C.3       1 <0>         0.1896
      9 H2          0.1872   -1.2691    1.6321 H         1 <0>         0.0754
     10 N2          0.5946    0.2769    2.8937 N.pl3     1 <0>        -0.6385
     11 C7          0.2681    1.6788    3.1398 C.3       1 <0>         0.1812
     12 C8          0.9693   -0.5604    3.9488 C.ar      1 <0>         0.3699
     13 N3          2.1785   -1.1673    3.9269 N.ar      1 <0>        -0.3618
     14 C9          2.4926   -1.9664    4.9714 C.ar      1 <0>         0.5600
     15 N4          1.7561   -2.2557    6.0635 N.ar      1 <0>        -0.6340
     16 C10         0.5696   -1.6245    6.0268 C.ar      1 <0>         0.5981
     17 C11         0.1108   -0.7774    5.0255 C.ar      1 <0>        -0.2916
     18 C12        -1.1851   -0.3471    5.4093 C.2       1 <0>        -0.1298
     19 C13        -1.4760   -0.9370    6.6211 C.2       1 <0>         0.0214
     20 N5         -0.4043   -1.7109    6.9861 N.pl3     1 <0>        -0.6093
     21 C14        -1.8775   -0.2535   -1.1690 C.2       1 <0>         0.6647
     22 O1         -2.9337   -0.2631   -0.5315 O.2       1 <0>        -0.5357
     23 C15        -1.8952   -0.6362   -2.6275 C.3       1 <0>        -0.0801
     24 C16        -3.2576   -0.9632   -3.0278 C.1       1 <0>         0.1923
     25 N6         -4.3369   -1.2270   -3.3626 N.1       1 <0>        -0.3060
     26 H3          3.5375    1.1374    0.3816 H         1 <0>         0.0498
     27 H4          2.7241    1.4808    1.9459 H         1 <0>         0.0498
     28 H5          1.9297    1.9384    0.4011 H         1 <0>         0.0498
     29 H6          2.6682   -0.5116   -1.1538 H         1 <0>         0.0740
     30 H7          1.4523   -1.7228   -0.6237 H         1 <0>         0.0740
     31 H8          0.9431    1.1552   -1.4993 H         1 <0>         0.0729
     32 H9          0.4702   -0.3544   -2.3501 H         1 <0>         0.0729
     33 H10        -0.2977    1.6243    0.7743 H         1 <0>         0.0533
     34 H11        -1.5320    0.4100    1.2525 H         1 <0>         0.0533
     35 H12         0.3831    1.8994    4.2113 H         1 <0>         0.0751
     36 H13        -0.7710    1.8722    2.8350 H         1 <0>         0.0751
     37 H14         0.9463    2.3207    2.5584 H         1 <0>         0.0751
     38 H15         3.4684   -2.4378    4.9240 H         1 <0>         0.0966
     39 H16        -1.8408    0.3204    4.8672 H         1 <0>         0.1826
     40 H17        -2.3496   -0.8751    7.2546 H         1 <0>         0.2091
     41 H18        -0.2454   -2.3371    7.8764 H         1 <0>         0.5002
     42 H19        -1.5277    0.2061   -3.2321 H         1 <0>         0.0946
     43 H20        -1.2470   -1.5109   -2.7850 H         1 <0>         0.0946
     44 H21         2.8620   -1.0013    3.0811 H         1 <0>         0.3321
@<TRIPOS>BOND
     1    1    2 1
     2    1   26 1
     3    1   27 1
     4    1   28 1
     5    2    3 1
     6    2    8 1
     7    2    4 1
     8    4    5 1
     9    4   29 1
    10    4   30 1
    11    5    6 1
    12    5   31 1
    13    5   32 1
    14    6    7 1
    15    6   21 am
    16    7    8 1
    17    7   33 1
    18    7   34 1
    19    8    9 1
    20    8   10 1
    21   10   11 1
    22   10   12 1
    23   11   35 1
    24   11   36 1
    25   11   37 1
    26   12   17 ar
    27   12   13 ar
    28   13   14 ar
    29   13   44 1
    30   14   15 ar
    31   14   38 1
    32   15   16 ar
    33   16   20 1
    34   16   17 ar
    35   17   18 1
    36   18   19 2
    37   18   39 1
    38   19   20 1
    39   19   40 1
    40   20   41 1
    41   21   22 2
    42   21   23 1
    43   23   24 1
    44   23   42 1
    45   23   43 1
    46   24   25 3
