3-[(3~{R},4~{R})-4-methyl-3-[methyl(7~{H}-pyrrolo[2,3-d]pyrimidin-4-yl)amino]-1-piperidyl]-3-oxo-propanenitrile
                    3D
 Structure written by MMmdl.
 43 45  0  0  1  0            999 V2000
    2.5669    1.1910    0.8965 C   0  0  0  0  0  0
    1.8825   -0.1814    0.8419 C   0  0  2  0  0  0
    2.5528   -0.8555    1.3954 H   0  0  0  0  0  0
    1.7209   -0.6562   -0.6136 C   0  0  0  0  0  0
    0.6308    0.1090   -1.3655 C   0  0  0  0  0  0
   -0.6384    0.0903   -0.6269 N   0  0  0  0  0  0
   -0.5590    0.5559    0.7605 C   0  0  0  0  0  0
    0.5062   -0.2206    1.5380 C   0  0  2  0  0  0
    0.1872   -1.2691    1.6321 H   0  0  0  0  0  0
    0.5946    0.2769    2.8937 N   0  0  0  0  0  0
    0.2681    1.6788    3.1398 C   0  0  0  0  0  0
    0.9694   -0.5604    3.9488 C   0  0  0  0  0  0
    2.1785   -1.1673    3.9270 N   0  0  0  0  0  0
    2.4926   -1.9664    4.9715 C   0  0  0  0  0  0
    1.7561   -2.2556    6.0635 N   0  0  0  0  0  0
    0.5696   -1.6244    6.0269 C   0  0  0  0  0  0
    0.1108   -0.7774    5.0255 C   0  0  0  0  0  0
   -1.1851   -0.3471    5.4093 C   0  0  0  0  0  0
   -1.4760   -0.9370    6.6211 C   0  0  0  0  0  0
   -0.4043   -1.7108    6.9861 N   0  0  0  0  0  0
   -1.8775   -0.2535   -1.1690 C   0  0  0  0  0  0
   -2.9337   -0.2631   -0.5315 O   0  0  0  0  0  0
   -1.8952   -0.6362   -2.6275 C   0  0  0  0  0  0
   -3.2576   -0.9632   -3.0278 C   0  0  0  0  0  0
   -4.3369   -1.2270   -3.3627 N   0  0  0  0  0  0
    3.5375    1.1374    0.3816 H   0  0  0  0  0  0
    2.7241    1.4808    1.9459 H   0  0  0  0  0  0
    1.9297    1.9384    0.4011 H   0  0  0  0  0  0
    2.6682   -0.5116   -1.1538 H   0  0  0  0  0  0
    1.4523   -1.7228   -0.6237 H   0  0  0  0  0  0
    0.9431    1.1552   -1.4993 H   0  0  0  0  0  0
    0.4702   -0.3544   -2.3501 H   0  0  0  0  0  0
   -0.2977    1.6243    0.7743 H   0  0  0  0  0  0
   -1.5320    0.4100    1.2525 H   0  0  0  0  0  0
    0.3831    1.8994    4.2113 H   0  0  0  0  0  0
   -0.7710    1.8722    2.8350 H   0  0  0  0  0  0
    0.9463    2.3207    2.5584 H   0  0  0  0  0  0
    3.4684   -2.4377    4.9240 H   0  0  0  0  0  0
   -1.8408    0.3204    4.8672 H   0  0  0  0  0  0
   -2.3496   -0.8750    7.2546 H   0  0  0  0  0  0
   -0.2454   -2.3370    7.8764 H   0  0  0  0  0  0
   -1.5277    0.2061   -3.2321 H   0  0  0  0  0  0
   -1.2470   -1.5109   -2.7850 H   0  0  0  0  0  0
  1  2  1  0  0  0
  1 26  1  0  0  0
  1 27  1  0  0  0
  1 28  1  0  0  0
  2  3  1  0  0  0
  2  8  1  0  0  0
  2  4  1  0  0  0
  4  5  1  0  0  0
  4 29  1  0  0  0
  4 30  1  0  0  0
  5  6  1  0  0  0
  5 31  1  0  0  0
  5 32  1  0  0  0
  6  7  1  0  0  0
  6 21  1  0  0  0
  7  8  1  0  0  0
  7 33  1  0  0  0
  7 34  1  0  0  0
  8  9  1  0  0  0
  8 10  1  0  0  0
 10 11  1  0  0  0
 10 12  1  0  0  0
 11 35  1  0  0  0
 11 36  1  0  0  0
 11 37  1  0  0  0
 12 17  2  0  0  0
 12 13  1  0  0  0
 13 14  2  0  0  0
 14 15  1  0  0  0
 14 38  1  0  0  0
 15 16  2  0  0  0
 16 20  1  0  0  0
 16 17  1  0  0  0
 17 18  1  0  0  0
 18 19  2  0  0  0
 18 39  1  0  0  0
 19 20  1  0  0  0
 19 40  1  0  0  0
 20 41  1  0  0  0
 21 22  2  0  0  0
 21 23  1  0  0  0
 23 24  1  0  0  0
 23 42  1  0  0  0
 23 43  1  0  0  0
 24 25  3  0  0  0
M  END
> <s_m_source_file>
/Users/choderaj/github/choderalab/mcce-charges/mcce-charges.jchodera/epik_inhibitors/output/Tofacitinib/Tofacitinib-input.mol2

> <i_m_source_file_index>
1

> <r_lp_tautomer_probability>
0.999995209775946

> <r_epik_Ionization_Penalty>
  0.0022

> <r_epik_Ionization_Penalty_Charging>
  0.0000

> <r_epik_Ionization_Penalty_Neutral>
  0.0022

> <r_epik_State_Penalty>
  0.0015

> <i_epik_Tot_Q>
0

$$$$
3-[(3~{R},4~{R})-4-methyl-3-[methyl(7~{H}-pyrrolo[2,3-d]pyrimidin-4-yl)amino]-1-piperidyl]-3-oxo-propanenitrile
                    3D
 Structure written by MMmdl.
 44 46  0  0  1  0            999 V2000
    2.5669    1.1910    0.8965 C   0  0  0  0  0  0
    1.8825   -0.1814    0.8419 C   0  0  2  0  0  0
    2.5528   -0.8555    1.3954 H   0  0  0  0  0  0
    1.7209   -0.6562   -0.6136 C   0  0  0  0  0  0
    0.6308    0.1090   -1.3655 C   0  0  0  0  0  0
   -0.6384    0.0903   -0.6269 N   0  0  0  0  0  0
   -0.5590    0.5559    0.7605 C   0  0  0  0  0  0
    0.5062   -0.2206    1.5380 C   0  0  2  0  0  0
    0.1872   -1.2691    1.6321 H   0  0  0  0  0  0
    0.5946    0.2769    2.8937 N   0  0  0  0  0  0
    0.2681    1.6788    3.1398 C   0  0  0  0  0  0
    0.9694   -0.5604    3.9488 C   0  0  0  0  0  0
    2.1785   -1.1673    3.9270 N   0  0  0  0  0  0
    2.4926   -1.9664    4.9715 C   0  0  0  0  0  0
    1.7561   -2.2556    6.0635 N   0  3  0  0  0  0
    0.5696   -1.6244    6.0269 C   0  0  0  0  0  0
    0.1108   -0.7774    5.0255 C   0  0  0  0  0  0
   -1.1851   -0.3471    5.4093 C   0  0  0  0  0  0
   -1.4760   -0.9370    6.6211 C   0  0  0  0  0  0
   -0.4043   -1.7108    6.9861 N   0  0  0  0  0  0
   -1.8775   -0.2535   -1.1690 C   0  0  0  0  0  0
   -2.9337   -0.2631   -0.5315 O   0  0  0  0  0  0
   -1.8952   -0.6362   -2.6275 C   0  0  0  0  0  0
   -3.2576   -0.9632   -3.0278 C   0  0  0  0  0  0
   -4.3369   -1.2270   -3.3627 N   0  0  0  0  0  0
    3.5375    1.1374    0.3816 H   0  0  0  0  0  0
    2.7241    1.4808    1.9459 H   0  0  0  0  0  0
    1.9297    1.9384    0.4011 H   0  0  0  0  0  0
    2.6682   -0.5116   -1.1538 H   0  0  0  0  0  0
    1.4523   -1.7228   -0.6237 H   0  0  0  0  0  0
    0.9431    1.1552   -1.4993 H   0  0  0  0  0  0
    0.4702   -0.3544   -2.3501 H   0  0  0  0  0  0
   -0.2977    1.6243    0.7743 H   0  0  0  0  0  0
   -1.5320    0.4100    1.2525 H   0  0  0  0  0  0
    0.3831    1.8994    4.2113 H   0  0  0  0  0  0
   -0.7710    1.8722    2.8350 H   0  0  0  0  0  0
    0.9463    2.3207    2.5584 H   0  0  0  0  0  0
    3.4684   -2.4377    4.9240 H   0  0  0  0  0  0
   -1.8408    0.3204    4.8672 H   0  0  0  0  0  0
   -2.3496   -0.8750    7.2546 H   0  0  0  0  0  0
   -0.2454   -2.3370    7.8764 H   0  0  0  0  0  0
   -1.5277    0.2061   -3.2321 H   0  0  0  0  0  0
   -1.2470   -1.5109   -2.7850 H   0  0  0  0  0  0
    2.1563   -2.9314    6.8336 H   0  0  0  0  0  0
  1  2  1  0  0  0
  1 26  1  0  0  0
  1 27  1  0  0  0
  1 28  1  0  0  0
  2  3  1  0  0  0
  2  8  1  0  0  0
  2  4  1  0  0  0
  4  5  1  0  0  0
  4 29  1  0  0  0
  4 30  1  0  0  0
  5  6  1  0  0  0
  5 31  1  0  0  0
  5 32  1  0  0  0
  6  7  1  0  0  0
  6 21  1  0  0  0
  7  8  1  0  0  0
  7 33  1  0  0  0
  7 34  1  0  0  0
  8  9  1  0  0  0
  8 10  1  0  0  0
 10 11  1  0  0  0
 10 12  1  0  0  0
 11 35  1  0  0  0
 11 36  1  0  0  0
 11 37  1  0  0  0
 12 17  2  0  0  0
 12 13  1  0  0  0
 13 14  2  0  0  0
 14 15  1  0  0  0
 14 38  1  0  0  0
 15 16  2  0  0  0
 15 44  1  0  0  0
 16 20  1  0  0  0
 16 17  1  0  0  0
 17 18  1  0  0  0
 18 19  2  0  0  0
 18 39  1  0  0  0
 19 20  1  0  0  0
 19 40  1  0  0  0
 20 41  1  0  0  0
 21 22  2  0  0  0
 21 23  1  0  0  0
 23 24  1  0  0  0
 23 42  1  0  0  0
 23 43  1  0  0  0
 24 25  3  0  0  0
M  CHG  1  15   1
M  END
> <s_m_source_file>
/Users/choderaj/github/choderalab/mcce-charges/mcce-charges.jchodera/epik_inhibitors/output/Tofacitinib/Tofacitinib-input.mol2

> <i_m_source_file_index>
1

> <r_epik_Ionization_Penalty>
  3.4110

> <r_epik_Ionization_Penalty_Charging>
  3.4110

> <r_epik_Ionization_Penalty_Neutral>
  0.0000

> <r_epik_State_Penalty>
  3.6392

> <i_epik_Tot_Q>
1

$$$$
3-[(3~{R},4~{R})-4-methyl-3-[methyl(7~{H}-pyrrolo[2,3-d]pyrimidin-4-yl)amino]-1-piperidyl]-3-oxo-propanenitrile
                    3D
 Structure written by MMmdl.
 44 46  0  0  1  0            999 V2000
    2.5669    1.1910    0.8965 C   0  0  0  0  0  0
    1.8825   -0.1814    0.8419 C   0  0  2  0  0  0
    2.5528   -0.8555    1.3954 H   0  0  0  0  0  0
    1.7209   -0.6562   -0.6136 C   0  0  0  0  0  0
    0.6308    0.1090   -1.3655 C   0  0  0  0  0  0
   -0.6384    0.0903   -0.6269 N   0  0  0  0  0  0
   -0.5590    0.5559    0.7605 C   0  0  0  0  0  0
    0.5062   -0.2206    1.5380 C   0  0  2  0  0  0
    0.1872   -1.2691    1.6321 H   0  0  0  0  0  0
    0.5946    0.2769    2.8937 N   0  0  0  0  0  0
    0.2681    1.6788    3.1398 C   0  0  0  0  0  0
    0.9694   -0.5604    3.9488 C   0  0  0  0  0  0
    2.1785   -1.1673    3.9270 N   0  3  0  0  0  0
    2.4926   -1.9664    4.9715 C   0  0  0  0  0  0
    1.7561   -2.2556    6.0635 N   0  0  0  0  0  0
    0.5696   -1.6244    6.0269 C   0  0  0  0  0  0
    0.1108   -0.7774    5.0255 C   0  0  0  0  0  0
   -1.1851   -0.3471    5.4093 C   0  0  0  0  0  0
   -1.4760   -0.9370    6.6211 C   0  0  0  0  0  0
   -0.4043   -1.7108    6.9861 N   0  0  0  0  0  0
   -1.8775   -0.2535   -1.1690 C   0  0  0  0  0  0
   -2.9337   -0.2631   -0.5315 O   0  0  0  0  0  0
   -1.8952   -0.6362   -2.6275 C   0  0  0  0  0  0
   -3.2576   -0.9632   -3.0278 C   0  0  0  0  0  0
   -4.3369   -1.2270   -3.3627 N   0  0  0  0  0  0
    3.5375    1.1374    0.3816 H   0  0  0  0  0  0
    2.7241    1.4808    1.9459 H   0  0  0  0  0  0
    1.9297    1.9384    0.4011 H   0  0  0  0  0  0
    2.6682   -0.5116   -1.1538 H   0  0  0  0  0  0
    1.4523   -1.7228   -0.6237 H   0  0  0  0  0  0
    0.9431    1.1552   -1.4993 H   0  0  0  0  0  0
    0.4702   -0.3544   -2.3501 H   0  0  0  0  0  0
   -0.2977    1.6243    0.7743 H   0  0  0  0  0  0
   -1.5320    0.4100    1.2525 H   0  0  0  0  0  0
    0.3831    1.8994    4.2113 H   0  0  0  0  0  0
   -0.7710    1.8722    2.8350 H   0  0  0  0  0  0
    0.9463    2.3207    2.5584 H   0  0  0  0  0  0
    3.4684   -2.4377    4.9240 H   0  0  0  0  0  0
   -1.8408    0.3204    4.8672 H   0  0  0  0  0  0
   -2.3496   -0.8750    7.2546 H   0  0  0  0  0  0
   -0.2454   -2.3370    7.8764 H   0  0  0  0  0  0
   -1.5277    0.2061   -3.2321 H   0  0  0  0  0  0
   -1.2470   -1.5109   -2.7850 H   0  0  0  0  0  0
    2.8620   -1.0013    3.0813 H   0  0  0  0  0  0
  1  2  1  0  0  0
  1 26  1  0  0  0
  1 27  1  0  0  0
  1 28  1  0  0  0
  2  3  1  0  0  0
  2  8  1  0  0  0
  2  4  1  0  0  0
  4  5  1  0  0  0
  4 29  1  0  0  0
  4 30  1  0  0  0
  5  6  1  0  0  0
  5 31  1  0  0  0
  5 32  1  0  0  0
  6  7  1  0  0  0
  6 21  1  0  0  0
  7  8  1  0  0  0
  7 33  1  0  0  0
  7 34  1  0  0  0
  8  9  1  0  0  0
  8 10  1  0  0  0
 10 11  1  0  0  0
 10 12  1  0  0  0
 11 35  1  0  0  0
 11 36  1  0  0  0
 11 37  1  0  0  0
 12 17  2  0  0  0
 12 13  1  0  0  0
 13 14  2  0  0  0
 13 44  1  0  0  0
 14 15  1  0  0  0
 14 38  1  0  0  0
 15 16  2  0  0  0
 16 20  1  0  0  0
 16 17  1  0  0  0
 17 18  1  0  0  0
 18 19  2  0  0  0
 18 39  1  0  0  0
 19 20  1  0  0  0
 19 40  1  0  0  0
 20 41  1  0  0  0
 21 22  2  0  0  0
 21 23  1  0  0  0
 23 24  1  0  0  0
 23 42  1  0  0  0
 23 43  1  0  0  0
 24 25  3  0  0  0
M  CHG  1  13   1
M  END
> <s_m_source_file>
/Users/choderaj/github/choderalab/mcce-charges/mcce-charges.jchodera/epik_inhibitors/output/Tofacitinib/Tofacitinib-input.mol2

> <i_m_source_file_index>
1

> <r_epik_Ionization_Penalty>
  4.4609

> <r_epik_Ionization_Penalty_Charging>
  4.4609

> <r_epik_Ionization_Penalty_Neutral>
  0.0000

> <r_epik_State_Penalty>
  4.7612

> <i_epik_Tot_Q>
1

$$$$
