@<TRIPOS>MOLECULE
4-(2,4-dichloro-5-methoxy-anilino)-6-methoxy-7-[3-(4-methylpiperazin-1-yl)propoxy]quinoline-3-carbonitrile
   65    68     0     0     0
SMALL
USER_CHARGES

@<TRIPOS>ATOM
      1 C1          5.6596    2.1116    0.3482 C.ar      1 BOS        -0.1126
      2 C2          4.2762    2.1505    0.4965 C.ar      1 BOS         0.0873
      3 C3          3.5468    3.1512   -0.1335 C.ar      1 BOS         0.1223
      4 C4          4.2021    4.1102   -0.9099 C.ar      1 BOS        -0.2145
      5 C5          5.5843    4.0953   -1.0751 C.ar      1 BOS         0.4306
      6 C6          6.3184    3.0763   -0.4327 C.ar      1 BOS        -0.1750
      7 C7          7.7099    3.0608   -0.5989 C.ar      1 BOS         0.2632
      8 C8          8.3307    4.0277   -1.3765 C.ar      1 BOS        -0.1715
      9 C9          7.5291    4.9845   -1.9653 C.ar      1 BOS         0.4609
     10 N1          6.1841    5.0350   -1.8303 N.ar      1 BOS        -0.6632
     11 C10         9.7450    4.0615   -1.5824 C.1       1 BOS         0.2440
     12 N2         10.8938    4.0889   -1.7497 N.1       1 BOS        -0.3588
     13 N3          8.5017    2.0609    0.0227 N.pl3     1 BOS        -0.6910
     14 C11         8.9227    0.7909   -0.3984 C.ar      1 BOS         0.1942
     15 C12         9.7144   -0.0179    0.4170 C.ar      1 BOS        -0.0281
     16 C13        10.1175   -1.2764   -0.0296 C.ar      1 BOS        -0.0841
     17 C14         9.7291   -1.7260   -1.2916 C.ar      1 BOS        -0.0179
     18 C15         8.9375   -0.9172   -2.1070 C.ar      1 BOS         0.1329
     19 C16         8.5344    0.3413   -1.6604 C.ar      1 BOS        -0.1798
     20 O1          8.5432   -1.3307   -3.3447 O.3       1 BOS        -0.3369
     21 C17         7.3100   -2.0415   -3.4272 C.3       1 BOS         0.1152
     22 Cl1        10.2412   -3.2866   -1.8188 Cl        1 BOS        -0.0644
     23 Cl2        10.2169    0.5004    1.9867 Cl        1 BOS        -0.0751
     24 O2          2.1845    3.2092   -0.0018 O.3       1 BOS        -0.3345
     25 C18         1.4214    3.1112   -1.1971 C.3       1 BOS         0.1326
     26 C19         0.0813    2.4629   -0.8715 C.3       1 BOS        -0.0884
     27 C20         0.2286    1.0645   -0.2864 C.3       1 BOS         0.1803
     28 N4          0.9127    0.1466   -1.1951 N.3       1 BOS        -0.7397
     29 C21         0.0085   -0.3024   -2.2609 C.3       1 BOS         0.1725
     30 C22         0.7238   -1.2674   -3.2127 C.3       1 BOS         0.1670
     31 N5          1.2632   -2.4194   -2.4801 N.3       1 BOS        -0.7321
     32 C23         2.1683   -1.9706   -1.4149 C.3       1 BOS         0.1670
     33 C24         1.4542   -1.0049   -0.4630 C.3       1 BOS         0.1725
     34 C25         1.9460   -3.3388   -3.3883 C.3       1 BOS         0.1575
     35 O3          3.6529    1.2086    1.2565 O.3       1 BOS        -0.3319
     36 C26         3.4864    1.4996    2.6432 C.3       1 BOS         0.1161
     37 H1          6.2095    1.3189    0.8510 H         1 BOS         0.1529
     38 H2          3.6134    4.8872   -1.3959 H         1 BOS         0.1656
     39 H3          7.9448    5.7720   -2.5878 H         1 BOS         0.0373
     40 H4          8.8190    2.3224    0.9479 H         1 BOS         0.4559
     41 H5         10.7347   -1.9079    0.6061 H         1 BOS         0.1658
     42 H6          7.9173    0.9682   -2.3003 H         1 BOS         0.1572
     43 H7          7.1224   -2.3077   -4.4668 H         1 BOS         0.0471
     44 H8          6.5095   -1.4098   -3.0433 H         1 BOS         0.0471
     45 H9          7.3907   -2.9445   -2.8232 H         1 BOS         0.0471
     46 H10         1.9867    2.5134   -1.9186 H         1 BOS         0.0406
     47 H11         1.2791    4.1183   -1.6018 H         1 BOS         0.0406
     48 H12        -0.5201    2.4106   -1.7877 H         1 BOS         0.0655
     49 H13        -0.4774    3.1094   -0.1829 H         1 BOS         0.0655
     50 H14         0.8200    1.1022    0.6337 H         1 BOS         0.0320
     51 H15        -0.7486    0.6327   -0.0476 H         1 BOS         0.0320
     52 H16        -0.8813   -0.7904   -1.8403 H         1 BOS         0.0366
     53 H17        -0.3373    0.5614   -2.8416 H         1 BOS         0.0366
     54 H18         0.0007   -1.6107   -3.9626 H         1 BOS         0.0376
     55 H19         1.5214   -0.7346   -3.7482 H         1 BOS         0.0376
     56 H20         2.5140   -2.8344   -0.8341 H         1 BOS         0.0376
     57 H21         3.0581   -1.4832   -1.8362 H         1 BOS         0.0376
     58 H22         0.6574   -1.5377    0.0738 H         1 BOS         0.0366
     59 H23         2.1779   -0.6609    0.2859 H         1 BOS         0.0366
     60 H24         2.3315   -4.1762   -2.8161 H         1 BOS         0.0323
     61 H25         2.7624   -2.8145   -3.8744 H         1 BOS         0.0323
     62 H26         1.2388   -3.6917   -4.1318 H         1 BOS         0.0323
     63 H27         2.9770    0.6643    3.1218 H         1 BOS         0.0458
     64 H28         2.9033    2.4140    2.7459 H         1 BOS         0.0458
     65 H29         4.4714    1.6362    3.0874 H         1 BOS         0.0458
@<TRIPOS>BOND
     1    1    6 ar
     2    1    2 ar
     3    2    3 ar
     4    3    4 ar
     5    4    5 ar
     6    5   10 ar
     7    5    6 ar
     8    6    7 ar
     9    7    8 ar
    10    8    9 ar
    11    9   10 ar
    12    8   11 1
    13   11   12 3
    14    7   13 1
    15   13   14 1
    16   14   19 ar
    17   14   15 ar
    18   15   16 ar
    19   16   17 ar
    20   17   18 ar
    21   18   19 ar
    22   18   20 1
    23   20   21 1
    24   17   22 1
    25   15   23 1
    26    3   24 1
    27   24   25 1
    28   25   26 1
    29   26   27 1
    30   27   28 1
    31   28   33 1
    32   28   29 1
    33   29   30 1
    34   30   31 1
    35   31   32 1
    36   32   33 1
    37   31   34 1
    38    2   35 1
    39   35   36 1
    40    1   37 1
    41    4   38 1
    42    9   39 1
    43   13   40 1
    44   16   41 1
    45   19   42 1
    46   21   43 1
    47   21   44 1
    48   21   45 1
    49   25   46 1
    50   25   47 1
    51   26   48 1
    52   26   49 1
    53   27   50 1
    54   27   51 1
    55   29   52 1
    56   29   53 1
    57   30   54 1
    58   30   55 1
    59   32   56 1
    60   32   57 1
    61   33   58 1
    62   33   59 1
    63   34   60 1
    64   34   61 1
    65   34   62 1
    66   36   63 1
    67   36   64 1
    68   36   65 1
