@<TRIPOS>MOLECULE
4-(2,4-dichloro-5-methoxy-anilino)-6-methoxy-7-[3-(4-methylpiperazin-4-ium-1-yl)propoxy]quinoline-3-carbonitrile
   66    69     0     0     0
SMALL
USER_CHARGES

@<TRIPOS>ATOM
      1 C1        -46.2890  -11.8980   31.9630 C.3       1 <0>         0.1161
      2 O1        -40.7340   -3.3480   34.4650 O.3       1 <0>        -0.3364
      3 C2        -45.9370  -16.7140   33.9290 C.3       1 <0>         0.1722
      4 N1        -42.0470   -5.6070   36.9580 N.1       1 <0>        -0.3467
      5 Cl1       -41.6410   -2.5430   31.7040 Cl        1 <0>        -0.0513
      6 Cl2       -43.8530   -7.4090   31.5070 Cl        1 <0>        -0.0765
      7 C3        -42.6040   -6.4970   36.8710 C.1       1 <0>         0.2411
      8 C4        -44.1270   -8.3740   37.7730 C.ar      1 <0>         0.4723
      9 C5        -42.6710   -5.0430   31.8540 C.ar      1 <0>        -0.0941
     10 C6        -41.7470   -5.6360   34.3880 C.ar      1 <0>        -0.1470
     11 C7        -45.8070  -11.4630   36.5110 C.ar      1 <0>        -0.2072
     12 C8        -44.4960  -10.5590   34.1910 C.ar      1 <0>        -0.1099
     13 C9        -46.3970  -15.2540   33.9000 C.3       1 <0>        -0.0894
     14 C10       -46.3040  -14.6450   35.2980 C.3       1 <0>         0.1311
     15 C11       -49.7410  -20.4620   32.0550 C.3       1 <0>         0.0858
     16 C12       -46.9010  -18.9560   34.0040 C.3       1 <0>         0.1432
     17 C13       -47.5400  -17.3980   32.3130 C.3       1 <0>         0.1432
     18 C14       -48.0990  -19.8290   33.6830 C.3       1 <0>         0.1067
     19 C15       -48.7550  -18.2620   32.0640 C.3       1 <0>         0.1067
     20 N2        -44.8800   -9.5430   37.6960 N.ar      1 <0>        -0.6764
     21 N3        -42.7700   -7.9670   34.2760 N.pl3     1 <0>        -0.6557
     22 O2        -45.3390  -12.3390   32.8620 O.3       1 <0>        -0.3351
     23 O3        -46.8510  -13.3800   35.2230 O.3       1 <0>        -0.3309
     24 C16       -41.4640   -4.3120   33.7870 C.ar      1 <0>         0.1246
     25 C17       -41.9390   -4.0440   32.5110 C.ar      1 <0>        -0.0009
     26 C18       -42.9410   -6.2980   32.4360 C.ar      1 <0>        -0.0192
     27 C19       -43.4290   -7.8160   36.7070 C.ar      1 <0>        -0.1639
     28 C20       -42.4850   -6.6150   33.7650 C.ar      1 <0>         0.1507
     29 C21       -45.2610  -11.7280   34.1420 C.ar      1 <0>         0.0859
     30 C22       -45.9310  -12.2080   35.3090 C.ar      1 <0>         0.1031
     31 C23       -43.5260   -8.4920   35.4760 C.ar      1 <0>         0.2562
     32 C24       -44.9960  -10.2460   36.5210 C.ar      1 <0>         0.4329
     33 C25       -44.3210   -9.7500   35.3900 C.ar      1 <0>        -0.1798
     34 N4        -47.1180  -17.5460   33.6690 N.3       1 <0>        -0.7389
     35 N5        -48.5470  -19.6570   32.3240 N.4       1 <0>        -0.6845
     36 C26       -39.4020   -2.8960   34.0930 C.3       1 <0>         0.1148
     37 H1        -46.2083  -12.4766   31.0309 H         1 <0>         0.0462
     38 H2        -46.1236  -10.8319   31.7483 H         1 <0>         0.0462
     39 H3        -47.2921  -12.0341   32.3934 H         1 <0>         0.0462
     40 H4        -45.1731  -16.8732   33.1537 H         1 <0>         0.0525
     41 H5        -45.5108  -16.9446   34.9165 H         1 <0>         0.0525
     42 H6        -44.0820   -7.8660   38.7250 H         1 <0>         0.0411
     43 H7        -43.0440   -4.8430   30.8600 H         1 <0>         0.1686
     44 H8        -41.3510   -5.8440   35.3710 H         1 <0>         0.1639
     45 H9        -46.3070  -11.7920   37.4100 H         1 <0>         0.1593
     46 H10       -44.0050  -10.2360   33.2850 H         1 <0>         0.1516
     47 H11       -45.7559  -14.6811   33.2139 H         1 <0>         0.0684
     48 H12       -47.4400  -15.2050   33.5541 H         1 <0>         0.0684
     49 H13       -46.8650  -15.2701   36.0083 H         1 <0>         0.0458
     50 H14       -45.2494  -14.5953   35.6069 H         1 <0>         0.0458
     51 H15       -50.0584  -20.3102   31.0128 H         1 <0>         0.1059
     52 H16       -50.5507  -20.1549   32.7333 H         1 <0>         0.1059
     53 H17       -49.5104  -21.5253   32.2169 H         1 <0>         0.1059
     54 H18       -46.6821  -19.0151   35.0804 H         1 <0>         0.0771
     55 H19       -46.0286  -19.3060   33.4327 H         1 <0>         0.0771
     56 H20       -47.7942  -16.3451   32.1209 H         1 <0>         0.0771
     57 H21       -46.7268  -17.7075   31.6400 H         1 <0>         0.0771
     58 H22       -47.8304  -20.8864   33.8237 H         1 <0>         0.1107
     59 H23       -48.9317  -19.5699   34.3534 H         1 <0>         0.1107
     60 H24       -49.5790  -17.9318   32.7136 H         1 <0>         0.1107
     61 H25       -49.0596  -18.1717   31.0109 H         1 <0>         0.1107
     62 H26       -42.2952   -8.6691   33.5748 H         1 <0>         0.4392
     63 H27       -39.0639   -2.1274   34.8036 H         1 <0>         0.0495
     64 H28       -39.4289   -2.4712   33.0787 H         1 <0>         0.0495
     65 H29       -38.7062   -3.7477   34.1155 H         1 <0>         0.0495
     66 H30       -47.7591  -20.0022   31.6385 H         1 <0>         0.4447
@<TRIPOS>BOND
     1    1   22 1
     2    1   37 1
     3    1   38 1
     4    1   39 1
     5    2   24 1
     6    2   36 1
     7    3   40 1
     8    3   41 1
     9    3   13 1
    10    3   34 1
    11    4    7 3
    12    5   25 1
    13    6   26 1
    14    7   27 1
    15    8   42 1
    16    8   20 ar
    17    8   27 ar
    18    9   26 ar
    19    9   25 ar
    20    9   43 1
    21   10   44 1
    22   10   24 ar
    23   10   28 ar
    24   11   32 ar
    25   11   45 1
    26   11   30 ar
    27   12   33 ar
    28   12   46 1
    29   12   29 ar
    30   13   14 1
    31   13   47 1
    32   13   48 1
    33   14   49 1
    34   14   50 1
    35   14   23 1
    36   15   35 1
    37   15   51 1
    38   15   52 1
    39   15   53 1
    40   16   54 1
    41   16   55 1
    42   16   18 1
    43   16   34 1
    44   17   34 1
    45   17   56 1
    46   17   57 1
    47   17   19 1
    48   18   58 1
    49   18   59 1
    50   18   35 1
    51   19   35 1
    52   19   60 1
    53   19   61 1
    54   20   32 ar
    55   21   31 1
    56   21   62 1
    57   21   28 1
    58   22   29 1
    59   23   30 1
    60   24   25 ar
    61   26   28 ar
    62   27   31 ar
    63   29   30 ar
    64   31   33 ar
    65   32   33 ar
    66   35   66 1
    67   36   63 1
    68   36   64 1
    69   36   65 1
@<TRIPOS>MOLECULE
4-(2,4-dichloro-5-methoxy-anilino)-6-methoxy-7-[3-(4-methylpiperazin-1-ium-1-yl)propoxy]quinoline-3-carbonitrile
   66    69     0     0     0
SMALL
USER_CHARGES

@<TRIPOS>ATOM
      1 C1        -46.2890  -11.8980   31.9630 C.3       1 <0>         0.1283
      2 O1        -40.7340   -3.3480   34.4650 O.3       1 <0>        -0.3354
      3 C2        -45.9370  -16.7140   33.9290 C.3       1 <0>         0.1162
      4 N1        -42.0470   -5.6070   36.9580 N.1       1 <0>        -0.3183
      5 Cl1       -41.6410   -2.5430   31.7040 Cl        1 <0>        -0.0415
      6 Cl2       -43.8530   -7.4090   31.5070 Cl        1 <0>        -0.0966
      7 C3        -42.6040   -6.4970   36.8710 C.1       1 <0>         0.2342
      8 C4        -44.1270   -8.3740   37.7730 C.ar      1 <0>         0.4501
      9 C5        -42.6710   -5.0430   31.8540 C.ar      1 <0>        -0.0795
     10 C6        -41.7470   -5.6360   34.3880 C.ar      1 <0>        -0.1933
     11 C7        -45.8070  -11.4630   36.5110 C.ar      1 <0>        -0.2068
     12 C8        -44.4960  -10.5590   34.1910 C.ar      1 <0>        -0.1004
     13 C9        -46.3970  -15.2540   33.9000 C.3       1 <0>        -0.1252
     14 C10       -46.3040  -14.6450   35.2980 C.3       1 <0>         0.1345
     15 C11       -49.7410  -20.4620   32.0550 C.3       1 <0>         0.1471
     16 C12       -46.9010  -18.9560   34.0040 C.3       1 <0>         0.0834
     17 C13       -47.5400  -17.3980   32.3130 C.3       1 <0>         0.0834
     18 C14       -48.0990  -19.8290   33.6830 C.3       1 <0>         0.1488
     19 C15       -48.7550  -18.2620   32.0640 C.3       1 <0>         0.1488
     20 N2        -44.8800   -9.5430   37.6960 N.ar      1 <0>        -0.6641
     21 N3        -42.7700   -7.9670   34.2760 N.pl3     1 <0>        -0.7116
     22 O2        -45.3390  -12.3390   32.8620 O.3       1 <0>        -0.3515
     23 O3        -46.8510  -13.3800   35.2230 O.3       1 <0>        -0.3246
     24 C16       -41.4640   -4.3120   33.7870 C.ar      1 <0>         0.1402
     25 C17       -41.9390   -4.0440   32.5110 C.ar      1 <0>        -0.0259
     26 C18       -42.9410   -6.2980   32.4360 C.ar      1 <0>        -0.0275
     27 C19       -43.4290   -7.8160   36.7070 C.ar      1 <0>        -0.1397
     28 C20       -42.4850   -6.6150   33.7650 C.ar      1 <0>         0.1833
     29 C21       -45.2610  -11.7280   34.1420 C.ar      1 <0>         0.1043
     30 C22       -45.9310  -12.2080   35.3090 C.ar      1 <0>         0.0878
     31 C23       -43.5260   -8.4920   35.4760 C.ar      1 <0>         0.2563
     32 C24       -44.9960  -10.2460   36.5210 C.ar      1 <0>         0.4255
     33 C25       -44.3210   -9.7500   35.3900 C.ar      1 <0>        -0.1596
     34 N4        -47.1180  -17.5460   33.6690 N.4       1 <0>        -0.6708
     35 N5        -48.5470  -19.6570   32.3240 N.3       1 <0>        -0.7391
     36 C26       -39.4020   -2.8960   34.0930 C.3       1 <0>         0.1172
     37 H1        -46.2083  -12.4766   31.0309 H         1 <0>         0.0441
     38 H2        -46.1236  -10.8319   31.7483 H         1 <0>         0.0441
     39 H3        -47.2921  -12.0341   32.3934 H         1 <0>         0.0441
     40 H4        -45.1731  -16.8732   33.1537 H         1 <0>         0.1063
     41 H5        -45.5108  -16.9446   34.9165 H         1 <0>         0.1063
     42 H6        -44.0820   -7.8660   38.7250 H         1 <0>         0.0516
     43 H7        -43.0440   -4.8430   30.8600 H         1 <0>         0.1734
     44 H8        -41.3510   -5.8440   35.3710 H         1 <0>         0.1616
     45 H9        -46.3070  -11.7920   37.4100 H         1 <0>         0.1637
     46 H10       -44.0050  -10.2360   33.2850 H         1 <0>         0.1656
     47 H11       -45.7559  -14.6811   33.2139 H         1 <0>         0.0813
     48 H12       -47.4400  -15.2050   33.5541 H         1 <0>         0.0813
     49 H13       -46.8650  -15.2701   36.0083 H         1 <0>         0.0558
     50 H14       -45.2494  -14.5953   35.6069 H         1 <0>         0.0558
     51 H15       -50.0584  -20.3102   31.0128 H         1 <0>         0.0582
     52 H16       -50.5507  -20.1549   32.7333 H         1 <0>         0.0582
     53 H17       -49.5104  -21.5253   32.2169 H         1 <0>         0.0582
     54 H18       -46.6821  -19.0151   35.0804 H         1 <0>         0.1130
     55 H19       -46.0286  -19.3060   33.4327 H         1 <0>         0.1130
     56 H20       -47.7942  -16.3451   32.1209 H         1 <0>         0.1130
     57 H21       -46.7268  -17.7075   31.6400 H         1 <0>         0.1130
     58 H22       -47.8304  -20.8864   33.8237 H         1 <0>         0.0751
     59 H23       -48.9317  -19.5699   34.3534 H         1 <0>         0.0751
     60 H24       -49.5790  -17.9318   32.7136 H         1 <0>         0.0751
     61 H25       -49.0596  -18.1717   31.0109 H         1 <0>         0.0751
     62 H26       -42.2952   -8.6691   33.5748 H         1 <0>         0.4658
     63 H27       -39.0639   -2.1274   34.8036 H         1 <0>         0.0468
     64 H28       -39.4289   -2.4712   33.0787 H         1 <0>         0.0468
     65 H29       -38.7062   -3.7477   34.1155 H         1 <0>         0.0468
     66 H30       -47.9374  -17.1850   34.3079 H         1 <0>         0.4535
@<TRIPOS>BOND
     1    1   22 1
     2    1   37 1
     3    1   38 1
     4    1   39 1
     5    2   24 1
     6    2   36 1
     7    3   40 1
     8    3   41 1
     9    3   13 1
    10    3   34 1
    11    4    7 3
    12    5   25 1
    13    6   26 1
    14    7   27 1
    15    8   42 1
    16    8   20 ar
    17    8   27 ar
    18    9   26 ar
    19    9   25 ar
    20    9   43 1
    21   10   44 1
    22   10   24 ar
    23   10   28 ar
    24   11   32 ar
    25   11   45 1
    26   11   30 ar
    27   12   33 ar
    28   12   46 1
    29   12   29 ar
    30   13   14 1
    31   13   47 1
    32   13   48 1
    33   14   49 1
    34   14   50 1
    35   14   23 1
    36   15   35 1
    37   15   51 1
    38   15   52 1
    39   15   53 1
    40   16   54 1
    41   16   55 1
    42   16   18 1
    43   16   34 1
    44   17   34 1
    45   17   56 1
    46   17   57 1
    47   17   19 1
    48   18   58 1
    49   18   59 1
    50   18   35 1
    51   19   35 1
    52   19   60 1
    53   19   61 1
    54   20   32 ar
    55   21   31 1
    56   21   62 1
    57   21   28 1
    58   22   29 1
    59   23   30 1
    60   24   25 ar
    61   26   28 ar
    62   27   31 ar
    63   29   30 ar
    64   31   33 ar
    65   32   33 ar
    66   34   66 1
    67   36   63 1
    68   36   64 1
    69   36   65 1
@<TRIPOS>MOLECULE
4-(2,4-dichloro-5-methoxy-anilino)-6-methoxy-7-[3-(4-methylpiperazin-1-yl)propoxy]quinoline-3-carbonitrile
   65    68     0     0     0
SMALL
USER_CHARGES

@<TRIPOS>ATOM
      1 C1        -46.2890  -11.8980   31.9630 C.3       1 <0>         0.1168
      2 O1        -40.7340   -3.3480   34.4650 O.3       1 <0>        -0.3371
      3 C2        -45.9370  -16.7140   33.9290 C.3       1 <0>         0.1795
      4 N1        -42.0470   -5.6070   36.9580 N.1       1 <0>        -0.3641
      5 Cl1       -41.6410   -2.5430   31.7040 Cl        1 <0>        -0.0603
      6 Cl2       -43.8530   -7.4090   31.5070 Cl        1 <0>        -0.0708
      7 C3        -42.6040   -6.4970   36.8710 C.1       1 <0>         0.2498
      8 C4        -44.1270   -8.3740   37.7730 C.ar      1 <0>         0.4651
      9 C5        -42.6710   -5.0430   31.8540 C.ar      1 <0>        -0.0949
     10 C6        -41.7470   -5.6360   34.3880 C.ar      1 <0>        -0.1480
     11 C7        -45.8070  -11.4630   36.5110 C.ar      1 <0>        -0.2140
     12 C8        -44.4960  -10.5590   34.1910 C.ar      1 <0>        -0.1202
     13 C9        -46.3970  -15.2540   33.9000 C.3       1 <0>        -0.0884
     14 C10       -46.3040  -14.6450   35.2980 C.3       1 <0>         0.1308
     15 C11       -49.7410  -20.4620   32.0550 C.3       1 <0>         0.1617
     16 C12       -46.9010  -18.9560   34.0040 C.3       1 <0>         0.1727
     17 C13       -47.5400  -17.3980   32.3130 C.3       1 <0>         0.1727
     18 C14       -48.0990  -19.8290   33.6830 C.3       1 <0>         0.1708
     19 C15       -48.7550  -18.2620   32.0640 C.3       1 <0>         0.1708
     20 N2        -44.8800   -9.5430   37.6960 N.ar      1 <0>        -0.6698
     21 N3        -42.7700   -7.9670   34.2760 N.pl3     1 <0>        -0.6539
     22 O2        -45.3390  -12.3390   32.8620 O.3       1 <0>        -0.3330
     23 O3        -46.8510  -13.3800   35.2230 O.3       1 <0>        -0.3313
     24 C16       -41.4640   -4.3120   33.7870 C.ar      1 <0>         0.1212
     25 C17       -41.9390   -4.0440   32.5110 C.ar      1 <0>        -0.0035
     26 C18       -42.9410   -6.2980   32.4360 C.ar      1 <0>        -0.0203
     27 C19       -43.4290   -7.8160   36.7070 C.ar      1 <0>        -0.1722
     28 C20       -42.4850   -6.6150   33.7650 C.ar      1 <0>         0.1565
     29 C21       -45.2610  -11.7280   34.1420 C.ar      1 <0>         0.0891
     30 C22       -45.9310  -12.2080   35.3090 C.ar      1 <0>         0.1222
     31 C23       -43.5260   -8.4920   35.4760 C.ar      1 <0>         0.2520
     32 C24       -44.9960  -10.2460   36.5210 C.ar      1 <0>         0.4361
     33 C25       -44.3210   -9.7500   35.3900 C.ar      1 <0>        -0.1851
     34 N4        -47.1180  -17.5460   33.6690 N.3       1 <0>        -0.7400
     35 N5        -48.5470  -19.6570   32.3240 N.3       1 <0>        -0.7395
     36 C26       -39.4020   -2.8960   34.0930 C.3       1 <0>         0.1152
     37 H1        -46.2083  -12.4766   31.0309 H         1 <0>         0.0450
     38 H2        -46.1236  -10.8319   31.7483 H         1 <0>         0.0450
     39 H3        -47.2921  -12.0341   32.3934 H         1 <0>         0.0450
     40 H4        -45.1731  -16.8732   33.1537 H         1 <0>         0.0321
     41 H5        -45.5108  -16.9446   34.9165 H         1 <0>         0.0321
     42 H6        -44.0820   -7.8660   38.7250 H         1 <0>         0.0370
     43 H7        -43.0440   -4.8430   30.8600 H         1 <0>         0.1662
     44 H8        -41.3510   -5.8440   35.3710 H         1 <0>         0.1633
     45 H9        -46.3070  -11.7920   37.4100 H         1 <0>         0.1660
     46 H10       -44.0050  -10.2360   33.2850 H         1 <0>         0.1459
     47 H11       -45.7559  -14.6811   33.2139 H         1 <0>         0.0657
     48 H12       -47.4400  -15.2050   33.5541 H         1 <0>         0.0657
     49 H13       -46.8650  -15.2701   36.0083 H         1 <0>         0.0416
     50 H14       -45.2494  -14.5953   35.6069 H         1 <0>         0.0416
     51 H15       -50.0584  -20.3102   31.0128 H         1 <0>         0.0318
     52 H16       -50.5507  -20.1549   32.7333 H         1 <0>         0.0318
     53 H17       -49.5104  -21.5253   32.2169 H         1 <0>         0.0318
     54 H18       -46.6821  -19.0151   35.0804 H         1 <0>         0.0368
     55 H19       -46.0286  -19.3060   33.4327 H         1 <0>         0.0368
     56 H20       -47.7942  -16.3451   32.1209 H         1 <0>         0.0368
     57 H21       -46.7268  -17.7075   31.6400 H         1 <0>         0.0368
     58 H22       -47.8304  -20.8864   33.8237 H         1 <0>         0.0367
     59 H23       -48.9317  -19.5699   34.3534 H         1 <0>         0.0367
     60 H24       -49.5790  -17.9318   32.7136 H         1 <0>         0.0367
     61 H25       -49.0596  -18.1717   31.0109 H         1 <0>         0.0367
     62 H26       -42.2952   -8.6691   33.5748 H         1 <0>         0.4395
     63 H27       -39.0639   -2.1274   34.8036 H         1 <0>         0.0476
     64 H28       -39.4289   -2.4712   33.0787 H         1 <0>         0.0476
     65 H29       -38.7062   -3.7477   34.1155 H         1 <0>         0.0476
@<TRIPOS>BOND
     1    1   22 1
     2    1   37 1
     3    1   38 1
     4    1   39 1
     5    2   24 1
     6    2   36 1
     7    3   40 1
     8    3   41 1
     9    3   13 1
    10    3   34 1
    11    4    7 3
    12    5   25 1
    13    6   26 1
    14    7   27 1
    15    8   42 1
    16    8   20 ar
    17    8   27 ar
    18    9   26 ar
    19    9   25 ar
    20    9   43 1
    21   10   44 1
    22   10   24 ar
    23   10   28 ar
    24   11   32 ar
    25   11   45 1
    26   11   30 ar
    27   12   33 ar
    28   12   46 1
    29   12   29 ar
    30   13   14 1
    31   13   47 1
    32   13   48 1
    33   14   49 1
    34   14   50 1
    35   14   23 1
    36   15   35 1
    37   15   51 1
    38   15   52 1
    39   15   53 1
    40   16   54 1
    41   16   55 1
    42   16   18 1
    43   16   34 1
    44   17   34 1
    45   17   56 1
    46   17   57 1
    47   17   19 1
    48   18   58 1
    49   18   59 1
    50   18   35 1
    51   19   35 1
    52   19   60 1
    53   19   61 1
    54   20   32 ar
    55   21   31 1
    56   21   62 1
    57   21   28 1
    58   22   29 1
    59   23   30 1
    60   24   25 ar
    61   26   28 ar
    62   27   31 ar
    63   29   30 ar
    64   31   33 ar
    65   32   33 ar
    66   36   63 1
    67   36   64 1
    68   36   65 1
@<TRIPOS>MOLECULE
[3-cyano-6-methoxy-7-[3-(4-methylpiperazin-4-ium-1-yl)propoxy]-4-quinolyl]-(2,4-dichloro-5-methoxy-phenyl)azanide
   65    68     0     0     0
SMALL
USER_CHARGES

@<TRIPOS>ATOM
      1 C1        -46.2890  -11.8980   31.9630 C.3       1 <0>         0.1171
      2 O1        -40.7340   -3.3480   34.4650 O.3       1 <0>        -0.3499
      3 C2        -45.9370  -16.7140   33.9290 C.3       1 <0>         0.1689
      4 N1        -42.0470   -5.6070   36.9580 N.1       1 <0>        -0.4800
      5 Cl1       -41.6410   -2.5430   31.7040 Cl        1 <0>        -0.1121
      6 Cl2       -43.8530   -7.4090   31.5070 Cl        1 <0>        -0.1089
      7 C3        -42.6040   -6.4970   36.8710 C.1       1 <0>         0.2982
      8 C4        -44.1270   -8.3740   37.7730 C.ar      1 <0>         0.5231
      9 C5        -42.6710   -5.0430   31.8540 C.ar      1 <0>        -0.1067
     10 C6        -41.7470   -5.6360   34.3880 C.ar      1 <0>        -0.1655
     11 C7        -45.8070  -11.4630   36.5110 C.ar      1 <0>        -0.2480
     12 C8        -44.4960  -10.5590   34.1910 C.ar      1 <0>        -0.0464
     13 C9        -46.3970  -15.2540   33.9000 C.3       1 <0>        -0.0880
     14 C10       -46.3040  -14.6450   35.2980 C.3       1 <0>         0.1318
     15 C11       -49.7410  -20.4620   32.0550 C.3       1 <0>         0.0837
     16 C12       -46.9010  -18.9560   34.0040 C.3       1 <0>         0.1460
     17 C13       -47.5400  -17.3980   32.3130 C.3       1 <0>         0.1460
     18 C14       -48.0990  -19.8290   33.6830 C.3       1 <0>         0.1069
     19 C15       -48.7550  -18.2620   32.0640 C.3       1 <0>         0.1069
     20 N2        -44.8800   -9.5430   37.6960 N.ar      1 <0>        -0.8024
     21 N3        -42.7700   -7.9670   34.2760 N.2       1 <0>        -0.5153
     22 O2        -45.3390  -12.3390   32.8620 O.3       1 <0>        -0.3418
     23 O3        -46.8510  -13.3800   35.2230 O.3       1 <0>        -0.3413
     24 C16       -41.4640   -4.3120   33.7870 C.ar      1 <0>         0.1215
     25 C17       -41.9390   -4.0440   32.5110 C.ar      1 <0>        -0.0345
     26 C18       -42.9410   -6.2980   32.4360 C.ar      1 <0>        -0.0286
     27 C19       -43.4290   -7.8160   36.7070 C.ar      1 <0>        -0.3818
     28 C20       -42.4850   -6.6150   33.7650 C.ar      1 <0>         0.2123
     29 C21       -45.2610  -11.7280   34.1420 C.ar      1 <0>         0.0012
     30 C22       -45.9310  -12.2080   35.3090 C.ar      1 <0>         0.0839
     31 C23       -43.5260   -8.4920   35.4760 C.ar      1 <0>         0.3083
     32 C24       -44.9960  -10.2460   36.5210 C.ar      1 <0>         0.4663
     33 C25       -44.3210   -9.7500   35.3900 C.ar      1 <0>        -0.1860
     34 N4        -47.1180  -17.5460   33.6690 N.3       1 <0>        -0.7405
     35 N5        -48.5470  -19.6570   32.3240 N.4       1 <0>        -0.6833
     36 C26       -39.4020   -2.8960   34.0930 C.3       1 <0>         0.1174
     37 H1        -46.2083  -12.4766   31.0309 H         1 <0>         0.0333
     38 H2        -46.1236  -10.8319   31.7483 H         1 <0>         0.0333
     39 H3        -47.2921  -12.0341   32.3934 H         1 <0>         0.0333
     40 H4        -45.1731  -16.8732   33.1537 H         1 <0>         0.0527
     41 H5        -45.5108  -16.9446   34.9165 H         1 <0>         0.0527
     42 H6        -44.0820   -7.8660   38.7250 H         1 <0>        -0.0027
     43 H7        -43.0440   -4.8430   30.8600 H         1 <0>         0.1442
     44 H8        -41.3510   -5.8440   35.3710 H         1 <0>         0.1560
     45 H9        -46.3070  -11.7920   37.4100 H         1 <0>         0.1330
     46 H10       -44.0050  -10.2360   33.2850 H         1 <0>         0.1677
     47 H11       -45.7559  -14.6811   33.2139 H         1 <0>         0.0626
     48 H12       -47.4400  -15.2050   33.5541 H         1 <0>         0.0626
     49 H13       -46.8650  -15.2701   36.0083 H         1 <0>         0.0401
     50 H14       -45.2494  -14.5953   35.6069 H         1 <0>         0.0401
     51 H15       -50.0584  -20.3102   31.0128 H         1 <0>         0.1024
     52 H16       -50.5507  -20.1549   32.7333 H         1 <0>         0.1024
     53 H17       -49.5104  -21.5253   32.2169 H         1 <0>         0.1024
     54 H18       -46.6821  -19.0151   35.0804 H         1 <0>         0.0778
     55 H19       -46.0286  -19.3060   33.4327 H         1 <0>         0.0778
     56 H20       -47.7942  -16.3451   32.1209 H         1 <0>         0.0778
     57 H21       -46.7268  -17.7075   31.6400 H         1 <0>         0.0778
     58 H22       -47.8304  -20.8864   33.8237 H         1 <0>         0.1060
     59 H23       -48.9317  -19.5699   34.3534 H         1 <0>         0.1060
     60 H24       -49.5790  -17.9318   32.7136 H         1 <0>         0.1060
     61 H25       -49.0596  -18.1717   31.0109 H         1 <0>         0.1060
     62 H26       -39.0639   -2.1274   34.8036 H         1 <0>         0.0419
     63 H27       -39.4289   -2.4712   33.0787 H         1 <0>         0.0419
     64 H28       -38.7062   -3.7477   34.1155 H         1 <0>         0.0419
     65 H29       -47.7591  -20.0022   31.6385 H         1 <0>         0.4452
@<TRIPOS>BOND
     1    1   22 1
     2    1   37 1
     3    1   38 1
     4    1   39 1
     5    2   24 1
     6    2   36 1
     7    3   40 1
     8    3   41 1
     9    3   13 1
    10    3   34 1
    11    4    7 3
    12    5   25 1
    13    6   26 1
    14    7   27 1
    15    8   42 1
    16    8   20 ar
    17    8   27 ar
    18    9   26 ar
    19    9   25 ar
    20    9   43 1
    21   10   44 1
    22   10   24 ar
    23   10   28 ar
    24   11   32 ar
    25   11   45 1
    26   11   30 ar
    27   12   33 ar
    28   12   46 1
    29   12   29 ar
    30   13   14 1
    31   13   47 1
    32   13   48 1
    33   14   49 1
    34   14   50 1
    35   14   23 1
    36   15   35 1
    37   15   51 1
    38   15   52 1
    39   15   53 1
    40   16   54 1
    41   16   55 1
    42   16   18 1
    43   16   34 1
    44   17   34 1
    45   17   56 1
    46   17   57 1
    47   17   19 1
    48   18   58 1
    49   18   59 1
    50   18   35 1
    51   19   35 1
    52   19   60 1
    53   19   61 1
    54   20   32 ar
    55   21   31 1
    56   21   28 1
    57   22   29 1
    58   23   30 1
    59   24   25 ar
    60   26   28 ar
    61   27   31 ar
    62   29   30 ar
    63   31   33 ar
    64   32   33 ar
    65   35   65 1
    66   36   62 1
    67   36   63 1
    68   36   64 1
