4-(2,4-dichloro-5-methoxy-anilino)-6-methoxy-7-[3-(4-methylpiperazin-1-yl)propoxy]quinoline-3-carbonitrile
                    3D
 Structure written by MMmdl.
 66 69  0  0  1  0            999 V2000
    5.6596    2.1116    0.3482 C   0  0  0  0  0  0
    4.2762    2.1505    0.4965 C   0  0  0  0  0  0
    3.5468    3.1512   -0.1335 C   0  0  0  0  0  0
    4.2021    4.1102   -0.9099 C   0  0  0  0  0  0
    5.5843    4.0953   -1.0751 C   0  0  0  0  0  0
    6.3184    3.0763   -0.4327 C   0  0  0  0  0  0
    7.7099    3.0608   -0.5989 C   0  0  0  0  0  0
    8.3307    4.0277   -1.3765 C   0  0  0  0  0  0
    7.5291    4.9845   -1.9653 C   0  0  0  0  0  0
    6.1841    5.0350   -1.8303 N   0  0  0  0  0  0
    9.7450    4.0615   -1.5824 C   0  0  0  0  0  0
   10.8938    4.0889   -1.7497 N   0  0  0  0  0  0
    8.5017    2.0609    0.0227 N   0  0  0  0  0  0
    8.9227    0.7909   -0.3984 C   0  0  0  0  0  0
    9.7144   -0.0179    0.4170 C   0  0  0  0  0  0
   10.1175   -1.2764   -0.0296 C   0  0  0  0  0  0
    9.7291   -1.7260   -1.2916 C   0  0  0  0  0  0
    8.9375   -0.9172   -2.1070 C   0  0  0  0  0  0
    8.5344    0.3413   -1.6604 C   0  0  0  0  0  0
    8.5432   -1.3307   -3.3447 O   0  0  0  0  0  0
    7.3100   -2.0415   -3.4272 C   0  0  0  0  0  0
   10.2412   -3.2866   -1.8188 Cl  0  0  0  0  0  0
   10.2169    0.5004    1.9867 Cl  0  0  0  0  0  0
    2.1845    3.2092   -0.0018 O   0  0  0  0  0  0
    1.4214    3.1112   -1.1971 C   0  0  0  0  0  0
    0.0813    2.4629   -0.8715 C   0  0  0  0  0  0
    0.2286    1.0645   -0.2864 C   0  0  0  0  0  0
    0.9127    0.1466   -1.1951 N   0  0  0  0  0  0
    0.0085   -0.3024   -2.2609 C   0  0  0  0  0  0
    0.7238   -1.2674   -3.2127 C   0  0  0  0  0  0
    1.2632   -2.4194   -2.4801 N   0  3  0  0  0  0
    2.1683   -1.9706   -1.4149 C   0  0  0  0  0  0
    1.4542   -1.0049   -0.4630 C   0  0  0  0  0  0
    1.9460   -3.3388   -3.3883 C   0  0  0  0  0  0
    3.6529    1.2086    1.2565 O   0  0  0  0  0  0
    3.4864    1.4996    2.6432 C   0  0  0  0  0  0
    6.2095    1.3189    0.8510 H   0  0  0  0  0  0
    3.6134    4.8872   -1.3959 H   0  0  0  0  0  0
    7.9448    5.7720   -2.5878 H   0  0  0  0  0  0
    8.9067    2.2284    1.0316 H   0  0  0  0  0  0
   10.7347   -1.9079    0.6061 H   0  0  0  0  0  0
    7.9173    0.9682   -2.3003 H   0  0  0  0  0  0
    7.1132   -2.3139   -4.4746 H   0  0  0  0  0  0
    6.4942   -1.4048   -3.0544 H   0  0  0  0  0  0
    7.3713   -2.9542   -2.8162 H   0  0  0  0  0  0
    1.2583    4.1170   -1.6115 H   0  0  0  0  0  0
    1.9649    2.4965   -1.9298 H   0  0  0  0  0  0
   -0.4554    3.0800   -0.1359 H   0  0  0  0  0  0
   -0.5193    2.3813   -1.7895 H   0  0  0  0  0  0
    0.8117    1.1163    0.6449 H   0  0  0  0  0  0
   -0.7675    0.6496   -0.0727 H   0  0  0  0  0  0
   -0.8548   -0.8189   -1.8159 H   0  0  0  0  0  0
   -0.3412    0.5677   -2.8358 H   0  0  0  0  0  0
    0.0128   -1.6303   -3.9695 H   0  0  0  0  0  0
    1.5535   -0.7440   -3.7103 H   0  0  0  0  0  0
    2.5178   -2.8408   -0.8399 H   0  0  0  0  0  0
    3.0317   -1.4548   -1.8605 H   0  0  0  0  0  0
    2.1742   -0.6543    0.2911 H   0  0  0  0  0  0
    0.6334   -1.5415    0.0353 H   0  0  0  0  0  0
    2.3409   -4.1922   -2.8176 H   0  0  0  0  0  0
    2.7756   -2.8146   -3.8852 H   0  0  0  0  0  0
    1.2353   -3.7014   -4.1456 H   0  0  0  0  0  0
    2.9722    0.6605    3.1347 H   0  0  0  0  0  0
    2.8862    2.4144    2.7564 H   0  0  0  0  0  0
    4.4724    1.6482    3.1076 H   0  0  0  0  0  0
    0.4254   -2.9639   -2.0201 H   0  0  0  0  0  0
  1  6  2  0  0  0
  1  2  1  0  0  0
  1 37  1  0  0  0
  2  3  2  0  0  0
  2 35  1  0  0  0
  3  4  1  0  0  0
  3 24  1  0  0  0
  4  5  2  0  0  0
  4 38  1  0  0  0
  5 10  1  0  0  0
  5  6  1  0  0  0
  6  7  1  0  0  0
  7  8  2  0  0  0
  7 13  1  0  0  0
  8  9  1  0  0  0
  8 11  1  0  0  0
  9 10  2  0  0  0
  9 39  1  0  0  0
 11 12  3  0  0  0
 13 14  1  0  0  0
 13 40  1  0  0  0
 14 19  2  0  0  0
 14 15  1  0  0  0
 15 16  2  0  0  0
 15 23  1  0  0  0
 16 17  1  0  0  0
 16 41  1  0  0  0
 17 18  2  0  0  0
 17 22  1  0  0  0
 18 19  1  0  0  0
 18 20  1  0  0  0
 19 42  1  0  0  0
 20 21  1  0  0  0
 21 43  1  0  0  0
 21 44  1  0  0  0
 21 45  1  0  0  0
 24 25  1  0  0  0
 25 26  1  0  0  0
 25 46  1  0  0  0
 25 47  1  0  0  0
 26 27  1  0  0  0
 26 48  1  0  0  0
 26 49  1  0  0  0
 27 28  1  0  0  0
 27 50  1  0  0  0
 27 51  1  0  0  0
 28 33  1  0  0  0
 28 29  1  0  0  0
 29 30  1  0  0  0
 29 52  1  0  0  0
 29 53  1  0  0  0
 30 31  1  0  0  0
 30 54  1  0  0  0
 30 55  1  0  0  0
 31 32  1  0  0  0
 31 34  1  0  0  0
 31 66  1  0  0  0
 32 33  1  0  0  0
 32 56  1  0  0  0
 32 57  1  0  0  0
 33 58  1  0  0  0
 33 59  1  0  0  0
 34 60  1  0  0  0
 34 61  1  0  0  0
 34 62  1  0  0  0
 35 36  1  0  0  0
 36 63  1  0  0  0
 36 64  1  0  0  0
 36 65  1  0  0  0
M  CHG  1  31   1
M  END
> <s_m_source_file>
/Users/choderaj/github/choderalab/mcce-charges/mcce-charges.jchodera/epik_inhibitors/output/Bosutinib/Bosutinib-input.mol2

> <i_m_source_file_index>
1

> <r_epik_Ionization_Penalty>
  0.0429

> <r_epik_Ionization_Penalty_Charging>
  0.0424

> <r_epik_Ionization_Penalty_Neutral>
  0.0004

> <r_epik_State_Penalty>
  0.0709

> <i_epik_Tot_Q>
1

$$$$
4-(2,4-dichloro-5-methoxy-anilino)-6-methoxy-7-[3-(4-methylpiperazin-1-yl)propoxy]quinoline-3-carbonitrile
                    3D
 Structure written by MMmdl.
 66 69  0  0  1  0            999 V2000
    5.6596    2.1116    0.3482 C   0  0  0  0  0  0
    4.2762    2.1505    0.4965 C   0  0  0  0  0  0
    3.5468    3.1512   -0.1335 C   0  0  0  0  0  0
    4.2021    4.1102   -0.9099 C   0  0  0  0  0  0
    5.5843    4.0953   -1.0751 C   0  0  0  0  0  0
    6.3184    3.0763   -0.4327 C   0  0  0  0  0  0
    7.7099    3.0608   -0.5989 C   0  0  0  0  0  0
    8.3307    4.0277   -1.3765 C   0  0  0  0  0  0
    7.5291    4.9845   -1.9653 C   0  0  0  0  0  0
    6.1841    5.0350   -1.8303 N   0  0  0  0  0  0
    9.7450    4.0615   -1.5824 C   0  0  0  0  0  0
   10.8938    4.0889   -1.7497 N   0  0  0  0  0  0
    8.5017    2.0609    0.0227 N   0  0  0  0  0  0
    8.9227    0.7909   -0.3984 C   0  0  0  0  0  0
    9.7144   -0.0179    0.4170 C   0  0  0  0  0  0
   10.1175   -1.2764   -0.0296 C   0  0  0  0  0  0
    9.7291   -1.7260   -1.2916 C   0  0  0  0  0  0
    8.9375   -0.9172   -2.1070 C   0  0  0  0  0  0
    8.5344    0.3413   -1.6604 C   0  0  0  0  0  0
    8.5432   -1.3307   -3.3447 O   0  0  0  0  0  0
    7.3100   -2.0415   -3.4272 C   0  0  0  0  0  0
   10.2412   -3.2866   -1.8188 Cl  0  0  0  0  0  0
   10.2169    0.5004    1.9867 Cl  0  0  0  0  0  0
    2.1845    3.2092   -0.0018 O   0  0  0  0  0  0
    1.4214    3.1112   -1.1971 C   0  0  0  0  0  0
    0.0813    2.4629   -0.8715 C   0  0  0  0  0  0
    0.2286    1.0645   -0.2864 C   0  0  0  0  0  0
    0.9127    0.1466   -1.1951 N   0  3  0  0  0  0
    0.0085   -0.3024   -2.2609 C   0  0  0  0  0  0
    0.7238   -1.2674   -3.2127 C   0  0  0  0  0  0
    1.2632   -2.4194   -2.4801 N   0  0  0  0  0  0
    2.1683   -1.9706   -1.4149 C   0  0  0  0  0  0
    1.4542   -1.0049   -0.4630 C   0  0  0  0  0  0
    1.9460   -3.3388   -3.3883 C   0  0  0  0  0  0
    3.6529    1.2086    1.2565 O   0  0  0  0  0  0
    3.4864    1.4996    2.6432 C   0  0  0  0  0  0
    6.2095    1.3189    0.8510 H   0  0  0  0  0  0
    3.6134    4.8872   -1.3959 H   0  0  0  0  0  0
    7.9448    5.7720   -2.5878 H   0  0  0  0  0  0
    8.9067    2.2284    1.0316 H   0  0  0  0  0  0
   10.7347   -1.9079    0.6061 H   0  0  0  0  0  0
    7.9173    0.9682   -2.3003 H   0  0  0  0  0  0
    7.1132   -2.3139   -4.4746 H   0  0  0  0  0  0
    6.4942   -1.4048   -3.0544 H   0  0  0  0  0  0
    7.3713   -2.9542   -2.8162 H   0  0  0  0  0  0
    1.2583    4.1170   -1.6115 H   0  0  0  0  0  0
    1.9649    2.4965   -1.9298 H   0  0  0  0  0  0
   -0.4554    3.0800   -0.1359 H   0  0  0  0  0  0
   -0.5193    2.3813   -1.7895 H   0  0  0  0  0  0
    0.8117    1.1163    0.6449 H   0  0  0  0  0  0
   -0.7675    0.6496   -0.0727 H   0  0  0  0  0  0
   -0.8548   -0.8189   -1.8159 H   0  0  0  0  0  0
   -0.3412    0.5677   -2.8358 H   0  0  0  0  0  0
    0.0128   -1.6303   -3.9695 H   0  0  0  0  0  0
    1.5535   -0.7440   -3.7103 H   0  0  0  0  0  0
    2.5178   -2.8408   -0.8399 H   0  0  0  0  0  0
    3.0317   -1.4548   -1.8605 H   0  0  0  0  0  0
    2.1742   -0.6543    0.2911 H   0  0  0  0  0  0
    0.6334   -1.5415    0.0353 H   0  0  0  0  0  0
    2.3409   -4.1922   -2.8176 H   0  0  0  0  0  0
    2.7756   -2.8146   -3.8852 H   0  0  0  0  0  0
    1.2353   -3.7014   -4.1456 H   0  0  0  0  0  0
    2.9722    0.6605    3.1347 H   0  0  0  0  0  0
    2.8862    2.4144    2.7564 H   0  0  0  0  0  0
    4.4724    1.6482    3.1076 H   0  0  0  0  0  0
    1.7498    0.6924   -1.6549 H   0  0  0  0  0  0
  1  6  2  0  0  0
  1  2  1  0  0  0
  1 37  1  0  0  0
  2  3  2  0  0  0
  2 35  1  0  0  0
  3  4  1  0  0  0
  3 24  1  0  0  0
  4  5  2  0  0  0
  4 38  1  0  0  0
  5 10  1  0  0  0
  5  6  1  0  0  0
  6  7  1  0  0  0
  7  8  2  0  0  0
  7 13  1  0  0  0
  8  9  1  0  0  0
  8 11  1  0  0  0
  9 10  2  0  0  0
  9 39  1  0  0  0
 11 12  3  0  0  0
 13 14  1  0  0  0
 13 40  1  0  0  0
 14 19  2  0  0  0
 14 15  1  0  0  0
 15 16  2  0  0  0
 15 23  1  0  0  0
 16 17  1  0  0  0
 16 41  1  0  0  0
 17 18  2  0  0  0
 17 22  1  0  0  0
 18 19  1  0  0  0
 18 20  1  0  0  0
 19 42  1  0  0  0
 20 21  1  0  0  0
 21 43  1  0  0  0
 21 44  1  0  0  0
 21 45  1  0  0  0
 24 25  1  0  0  0
 25 26  1  0  0  0
 25 46  1  0  0  0
 25 47  1  0  0  0
 26 27  1  0  0  0
 26 48  1  0  0  0
 26 49  1  0  0  0
 27 28  1  0  0  0
 27 50  1  0  0  0
 27 51  1  0  0  0
 28 33  1  0  0  0
 28 29  1  0  0  0
 28 66  1  0  0  0
 29 30  1  0  0  0
 29 52  1  0  0  0
 29 53  1  0  0  0
 30 31  1  0  0  0
 30 54  1  0  0  0
 30 55  1  0  0  0
 31 32  1  0  0  0
 31 34  1  0  0  0
 32 33  1  0  0  0
 32 56  1  0  0  0
 32 57  1  0  0  0
 33 58  1  0  0  0
 33 59  1  0  0  0
 34 60  1  0  0  0
 34 61  1  0  0  0
 34 62  1  0  0  0
 35 36  1  0  0  0
 36 63  1  0  0  0
 36 64  1  0  0  0
 36 65  1  0  0  0
M  CHG  1  28   1
M  END
> <s_m_source_file>
/Users/choderaj/github/choderalab/mcce-charges/mcce-charges.jchodera/epik_inhibitors/output/Bosutinib/Bosutinib-input.mol2

> <i_m_source_file_index>
1

> <r_epik_Ionization_Penalty>
  0.4023

> <r_epik_Ionization_Penalty_Charging>
  0.4013

> <r_epik_Ionization_Penalty_Neutral>
  0.0009

> <r_epik_State_Penalty>
  1.6946

> <i_epik_Tot_Q>
1

$$$$
4-(2,4-dichloro-5-methoxy-anilino)-6-methoxy-7-[3-(4-methylpiperazin-1-yl)propoxy]quinoline-3-carbonitrile
                    3D
 Structure written by MMmdl.
 65 68  0  0  1  0            999 V2000
    5.6596    2.1116    0.3482 C   0  0  0  0  0  0
    4.2762    2.1505    0.4965 C   0  0  0  0  0  0
    3.5468    3.1512   -0.1335 C   0  0  0  0  0  0
    4.2021    4.1102   -0.9099 C   0  0  0  0  0  0
    5.5843    4.0953   -1.0751 C   0  0  0  0  0  0
    6.3184    3.0763   -0.4327 C   0  0  0  0  0  0
    7.7099    3.0608   -0.5989 C   0  0  0  0  0  0
    8.3307    4.0277   -1.3765 C   0  0  0  0  0  0
    7.5291    4.9845   -1.9653 C   0  0  0  0  0  0
    6.1841    5.0350   -1.8303 N   0  0  0  0  0  0
    9.7450    4.0615   -1.5824 C   0  0  0  0  0  0
   10.8938    4.0889   -1.7497 N   0  0  0  0  0  0
    8.5017    2.0609    0.0227 N   0  0  0  0  0  0
    8.9227    0.7909   -0.3984 C   0  0  0  0  0  0
    9.7144   -0.0179    0.4170 C   0  0  0  0  0  0
   10.1175   -1.2764   -0.0296 C   0  0  0  0  0  0
    9.7291   -1.7260   -1.2916 C   0  0  0  0  0  0
    8.9375   -0.9172   -2.1070 C   0  0  0  0  0  0
    8.5344    0.3413   -1.6604 C   0  0  0  0  0  0
    8.5432   -1.3307   -3.3447 O   0  0  0  0  0  0
    7.3100   -2.0415   -3.4272 C   0  0  0  0  0  0
   10.2412   -3.2866   -1.8188 Cl  0  0  0  0  0  0
   10.2169    0.5004    1.9867 Cl  0  0  0  0  0  0
    2.1845    3.2092   -0.0018 O   0  0  0  0  0  0
    1.4214    3.1112   -1.1971 C   0  0  0  0  0  0
    0.0813    2.4629   -0.8715 C   0  0  0  0  0  0
    0.2286    1.0645   -0.2864 C   0  0  0  0  0  0
    0.9127    0.1466   -1.1951 N   0  0  0  0  0  0
    0.0085   -0.3024   -2.2609 C   0  0  0  0  0  0
    0.7238   -1.2674   -3.2127 C   0  0  0  0  0  0
    1.2632   -2.4194   -2.4801 N   0  0  0  0  0  0
    2.1683   -1.9706   -1.4149 C   0  0  0  0  0  0
    1.4542   -1.0049   -0.4630 C   0  0  0  0  0  0
    1.9460   -3.3388   -3.3883 C   0  0  0  0  0  0
    3.6529    1.2086    1.2565 O   0  0  0  0  0  0
    3.4864    1.4996    2.6432 C   0  0  0  0  0  0
    6.2095    1.3189    0.8510 H   0  0  0  0  0  0
    3.6134    4.8872   -1.3959 H   0  0  0  0  0  0
    7.9448    5.7720   -2.5878 H   0  0  0  0  0  0
    8.9067    2.2284    1.0316 H   0  0  0  0  0  0
   10.7347   -1.9079    0.6061 H   0  0  0  0  0  0
    7.9173    0.9682   -2.3003 H   0  0  0  0  0  0
    7.1132   -2.3139   -4.4746 H   0  0  0  0  0  0
    6.4942   -1.4048   -3.0544 H   0  0  0  0  0  0
    7.3713   -2.9542   -2.8162 H   0  0  0  0  0  0
    1.2583    4.1170   -1.6115 H   0  0  0  0  0  0
    1.9649    2.4965   -1.9298 H   0  0  0  0  0  0
   -0.4554    3.0800   -0.1359 H   0  0  0  0  0  0
   -0.5193    2.3813   -1.7895 H   0  0  0  0  0  0
    0.8117    1.1163    0.6449 H   0  0  0  0  0  0
   -0.7675    0.6496   -0.0727 H   0  0  0  0  0  0
   -0.8548   -0.8189   -1.8159 H   0  0  0  0  0  0
   -0.3412    0.5677   -2.8358 H   0  0  0  0  0  0
    0.0128   -1.6303   -3.9695 H   0  0  0  0  0  0
    1.5535   -0.7440   -3.7103 H   0  0  0  0  0  0
    2.5178   -2.8408   -0.8399 H   0  0  0  0  0  0
    3.0317   -1.4548   -1.8605 H   0  0  0  0  0  0
    2.1742   -0.6543    0.2911 H   0  0  0  0  0  0
    0.6334   -1.5415    0.0353 H   0  0  0  0  0  0
    2.3409   -4.1922   -2.8176 H   0  0  0  0  0  0
    2.7756   -2.8146   -3.8852 H   0  0  0  0  0  0
    1.2353   -3.7014   -4.1456 H   0  0  0  0  0  0
    2.9722    0.6605    3.1347 H   0  0  0  0  0  0
    2.8862    2.4144    2.7564 H   0  0  0  0  0  0
    4.4724    1.6482    3.1076 H   0  0  0  0  0  0
  1  6  2  0  0  0
  1  2  1  0  0  0
  1 37  1  0  0  0
  2  3  2  0  0  0
  2 35  1  0  0  0
  3  4  1  0  0  0
  3 24  1  0  0  0
  4  5  2  0  0  0
  4 38  1  0  0  0
  5 10  1  0  0  0
  5  6  1  0  0  0
  6  7  1  0  0  0
  7  8  2  0  0  0
  7 13  1  0  0  0
  8  9  1  0  0  0
  8 11  1  0  0  0
  9 10  2  0  0  0
  9 39  1  0  0  0
 11 12  3  0  0  0
 13 14  1  0  0  0
 13 40  1  0  0  0
 14 19  2  0  0  0
 14 15  1  0  0  0
 15 16  2  0  0  0
 15 23  1  0  0  0
 16 17  1  0  0  0
 16 41  1  0  0  0
 17 18  2  0  0  0
 17 22  1  0  0  0
 18 19  1  0  0  0
 18 20  1  0  0  0
 19 42  1  0  0  0
 20 21  1  0  0  0
 21 43  1  0  0  0
 21 44  1  0  0  0
 21 45  1  0  0  0
 24 25  1  0  0  0
 25 26  1  0  0  0
 25 46  1  0  0  0
 25 47  1  0  0  0
 26 27  1  0  0  0
 26 48  1  0  0  0
 26 49  1  0  0  0
 27 28  1  0  0  0
 27 50  1  0  0  0
 27 51  1  0  0  0
 28 33  1  0  0  0
 28 29  1  0  0  0
 29 30  1  0  0  0
 29 52  1  0  0  0
 29 53  1  0  0  0
 30 31  1  0  0  0
 30 54  1  0  0  0
 30 55  1  0  0  0
 31 32  1  0  0  0
 31 34  1  0  0  0
 32 33  1  0  0  0
 32 56  1  0  0  0
 32 57  1  0  0  0
 33 58  1  0  0  0
 33 59  1  0  0  0
 34 60  1  0  0  0
 34 61  1  0  0  0
 34 62  1  0  0  0
 35 36  1  0  0  0
 36 63  1  0  0  0
 36 64  1  0  0  0
 36 65  1  0  0  0
M  END
> <s_m_source_file>
/Users/choderaj/github/choderalab/mcce-charges/mcce-charges.jchodera/epik_inhibitors/output/Bosutinib/Bosutinib-input.mol2

> <i_m_source_file_index>
1

> <r_epik_Ionization_Penalty>
  2.0033

> <r_epik_Ionization_Penalty_Charging>
  0.0000

> <r_epik_Ionization_Penalty_Neutral>
  2.0033

> <r_epik_State_Penalty>
  1.7147

> <i_epik_Tot_Q>
0

$$$$
4-(2,4-dichloro-5-methoxy-anilino)-6-methoxy-7-[3-(4-methylpiperazin-1-yl)propoxy]quinoline-3-carbonitrile
                    3D
 Structure written by MMmdl.
 65 68  0  0  1  0            999 V2000
    5.6596    2.1116    0.3482 C   0  0  0  0  0  0
    4.2762    2.1505    0.4965 C   0  0  0  0  0  0
    3.5468    3.1512   -0.1335 C   0  0  0  0  0  0
    4.2021    4.1102   -0.9099 C   0  0  0  0  0  0
    5.5843    4.0953   -1.0751 C   0  0  0  0  0  0
    6.3184    3.0763   -0.4327 C   0  0  0  0  0  0
    7.7099    3.0608   -0.5989 C   0  0  0  0  0  0
    8.3307    4.0277   -1.3765 C   0  0  0  0  0  0
    7.5291    4.9845   -1.9653 C   0  0  0  0  0  0
    6.1841    5.0350   -1.8303 N   0  0  0  0  0  0
    9.7450    4.0615   -1.5824 C   0  0  0  0  0  0
   10.8938    4.0889   -1.7497 N   0  0  0  0  0  0
    8.5017    2.0609    0.0227 N   0  5  0  0  0  0
    8.9227    0.7909   -0.3984 C   0  0  0  0  0  0
    9.7144   -0.0179    0.4170 C   0  0  0  0  0  0
   10.1175   -1.2764   -0.0296 C   0  0  0  0  0  0
    9.7291   -1.7260   -1.2916 C   0  0  0  0  0  0
    8.9375   -0.9172   -2.1070 C   0  0  0  0  0  0
    8.5344    0.3413   -1.6604 C   0  0  0  0  0  0
    8.5432   -1.3307   -3.3447 O   0  0  0  0  0  0
    7.3100   -2.0415   -3.4272 C   0  0  0  0  0  0
   10.2412   -3.2866   -1.8188 Cl  0  0  0  0  0  0
   10.2169    0.5004    1.9867 Cl  0  0  0  0  0  0
    2.1845    3.2092   -0.0018 O   0  0  0  0  0  0
    1.4214    3.1112   -1.1971 C   0  0  0  0  0  0
    0.0813    2.4629   -0.8715 C   0  0  0  0  0  0
    0.2286    1.0645   -0.2864 C   0  0  0  0  0  0
    0.9127    0.1466   -1.1951 N   0  0  0  0  0  0
    0.0085   -0.3024   -2.2609 C   0  0  0  0  0  0
    0.7238   -1.2674   -3.2127 C   0  0  0  0  0  0
    1.2632   -2.4194   -2.4801 N   0  3  0  0  0  0
    2.1683   -1.9706   -1.4149 C   0  0  0  0  0  0
    1.4542   -1.0049   -0.4630 C   0  0  0  0  0  0
    1.9460   -3.3388   -3.3883 C   0  0  0  0  0  0
    3.6529    1.2086    1.2565 O   0  0  0  0  0  0
    3.4864    1.4996    2.6432 C   0  0  0  0  0  0
    6.2095    1.3189    0.8510 H   0  0  0  0  0  0
    3.6134    4.8872   -1.3959 H   0  0  0  0  0  0
    7.9448    5.7720   -2.5878 H   0  0  0  0  0  0
   10.7347   -1.9079    0.6061 H   0  0  0  0  0  0
    7.9173    0.9682   -2.3003 H   0  0  0  0  0  0
    7.1132   -2.3139   -4.4746 H   0  0  0  0  0  0
    6.4942   -1.4048   -3.0544 H   0  0  0  0  0  0
    7.3713   -2.9542   -2.8162 H   0  0  0  0  0  0
    1.2583    4.1170   -1.6115 H   0  0  0  0  0  0
    1.9649    2.4965   -1.9298 H   0  0  0  0  0  0
   -0.4554    3.0800   -0.1359 H   0  0  0  0  0  0
   -0.5193    2.3813   -1.7895 H   0  0  0  0  0  0
    0.8117    1.1163    0.6449 H   0  0  0  0  0  0
   -0.7675    0.6496   -0.0727 H   0  0  0  0  0  0
   -0.8548   -0.8189   -1.8159 H   0  0  0  0  0  0
   -0.3412    0.5677   -2.8358 H   0  0  0  0  0  0
    0.0128   -1.6303   -3.9695 H   0  0  0  0  0  0
    1.5535   -0.7440   -3.7103 H   0  0  0  0  0  0
    2.5178   -2.8408   -0.8399 H   0  0  0  0  0  0
    3.0317   -1.4548   -1.8605 H   0  0  0  0  0  0
    2.1742   -0.6543    0.2911 H   0  0  0  0  0  0
    0.6334   -1.5415    0.0353 H   0  0  0  0  0  0
    2.3409   -4.1922   -2.8176 H   0  0  0  0  0  0
    2.7756   -2.8146   -3.8852 H   0  0  0  0  0  0
    1.2353   -3.7014   -4.1456 H   0  0  0  0  0  0
    2.9722    0.6605    3.1347 H   0  0  0  0  0  0
    2.8862    2.4144    2.7564 H   0  0  0  0  0  0
    4.4724    1.6482    3.1076 H   0  0  0  0  0  0
    0.4254   -2.9639   -2.0201 H   0  0  0  0  0  0
  1  6  2  0  0  0
  1  2  1  0  0  0
  1 37  1  0  0  0
  2  3  2  0  0  0
  2 35  1  0  0  0
  3  4  1  0  0  0
  3 24  1  0  0  0
  4  5  2  0  0  0
  4 38  1  0  0  0
  5 10  1  0  0  0
  5  6  1  0  0  0
  6  7  1  0  0  0
  7  8  2  0  0  0
  7 13  1  0  0  0
  8  9  1  0  0  0
  8 11  1  0  0  0
  9 10  2  0  0  0
  9 39  1  0  0  0
 11 12  3  0  0  0
 13 14  1  0  0  0
 14 19  2  0  0  0
 14 15  1  0  0  0
 15 16  2  0  0  0
 15 23  1  0  0  0
 16 17  1  0  0  0
 16 40  1  0  0  0
 17 18  2  0  0  0
 17 22  1  0  0  0
 18 19  1  0  0  0
 18 20  1  0  0  0
 19 41  1  0  0  0
 20 21  1  0  0  0
 21 42  1  0  0  0
 21 43  1  0  0  0
 21 44  1  0  0  0
 24 25  1  0  0  0
 25 26  1  0  0  0
 25 45  1  0  0  0
 25 46  1  0  0  0
 26 27  1  0  0  0
 26 47  1  0  0  0
 26 48  1  0  0  0
 27 28  1  0  0  0
 27 49  1  0  0  0
 27 50  1  0  0  0
 28 33  1  0  0  0
 28 29  1  0  0  0
 29 30  1  0  0  0
 29 51  1  0  0  0
 29 52  1  0  0  0
 30 31  1  0  0  0
 30 53  1  0  0  0
 30 54  1  0  0  0
 31 32  1  0  0  0
 31 34  1  0  0  0
 31 65  1  0  0  0
 32 33  1  0  0  0
 32 55  1  0  0  0
 32 56  1  0  0  0
 33 57  1  0  0  0
 33 58  1  0  0  0
 34 59  1  0  0  0
 34 60  1  0  0  0
 34 61  1  0  0  0
 35 36  1  0  0  0
 36 62  1  0  0  0
 36 63  1  0  0  0
 36 64  1  0  0  0
M  CHG  2  13  -1  31   1
M  END
> <s_m_source_file>
/Users/choderaj/github/choderalab/mcce-charges/mcce-charges.jchodera/epik_inhibitors/output/Bosutinib/Bosutinib-input.mol2

> <i_m_source_file_index>
1

> <r_epik_Ionization_Penalty>
  4.7232

> <r_epik_Ionization_Penalty_Charging>
  4.7229

> <r_epik_Ionization_Penalty_Neutral>
  0.0003

> <r_epik_State_Penalty>
  5.0651

> <i_epik_Tot_Q>
0

$$$$
