@<TRIPOS>MOLECULE
4-(2,4-dichloro-5-methoxy-anilino)-6-methoxy-7-[3-(4-methylpiperazin-4-ium-1-yl)propoxy]quinoline-3-carbonitrile
   66    69     0     0     0
SMALL
USER_CHARGES

@<TRIPOS>ATOM
      1 C1          5.6596    2.1116    0.3482 C.ar      1 <0>        -0.1062
      2 C2          4.2762    2.1505    0.4965 C.ar      1 <0>         0.0832
      3 C3          3.5468    3.1512   -0.1335 C.ar      1 <0>         0.1034
      4 C4          4.2021    4.1102   -0.9099 C.ar      1 <0>        -0.2053
      5 C5          5.5843    4.0953   -1.0751 C.ar      1 <0>         0.4291
      6 C6          6.3184    3.0763   -0.4327 C.ar      1 <0>        -0.1756
      7 C7          7.7099    3.0608   -0.5989 C.ar      1 <0>         0.2550
      8 C8          8.3307    4.0277   -1.3765 C.ar      1 <0>        -0.1566
      9 C9          7.5291    4.9845   -1.9653 C.ar      1 <0>         0.4674
     10 N1          6.1841    5.0350   -1.8303 N.ar      1 <0>        -0.6695
     11 C10         9.7450    4.0615   -1.5824 C.1       1 <0>         0.2276
     12 N2         10.8938    4.0889   -1.7497 N.1       1 <0>        -0.3268
     13 N3          8.5017    2.0609    0.0227 N.pl3     1 <0>        -0.6892
     14 C11         8.9227    0.7909   -0.3984 C.ar      1 <0>         0.1834
     15 C12         9.7144   -0.0179    0.4170 C.ar      1 <0>        -0.0287
     16 C13        10.1175   -1.2764   -0.0296 C.ar      1 <0>        -0.0807
     17 C14         9.7291   -1.7260   -1.2916 C.ar      1 <0>        -0.0153
     18 C15         8.9375   -0.9172   -2.1070 C.ar      1 <0>         0.1322
     19 C16         8.5344    0.3413   -1.6604 C.ar      1 <0>        -0.1714
     20 O1          8.5432   -1.3307   -3.3447 O.3       1 <0>        -0.3319
     21 C17         7.3100   -2.0415   -3.4272 C.3       1 <0>         0.1151
     22 Cl1        10.2412   -3.2866   -1.8188 Cl        1 <0>        -0.0546
     23 Cl2        10.2169    0.5004    1.9867 Cl        1 <0>        -0.0816
     24 O2          2.1845    3.2092   -0.0018 O.3       1 <0>        -0.3262
     25 C18         1.4214    3.1112   -1.1971 C.3       1 <0>         0.1292
     26 C19         0.0813    2.4629   -0.8715 C.3       1 <0>        -0.0904
     27 C20         0.2286    1.0645   -0.2864 C.3       1 <0>         0.1736
     28 N4          0.9127    0.1466   -1.1951 N.3       1 <0>        -0.7397
     29 C21         0.0085   -0.3024   -2.2609 C.3       1 <0>         0.1436
     30 C22         0.7238   -1.2674   -3.2127 C.3       1 <0>         0.1076
     31 N5          1.2632   -2.4194   -2.4801 N.4       1 <0>        -0.6852
     32 C23         2.1683   -1.9706   -1.4149 C.3       1 <0>         0.1076
     33 C24         1.4542   -1.0049   -0.4630 C.3       1 <0>         0.1436
     34 C25         1.9460   -3.3388   -3.3883 C.3       1 <0>         0.0854
     35 O3          3.6529    1.2086    1.2565 O.3       1 <0>        -0.3232
     36 C26         3.4864    1.4996    2.6432 C.3       1 <0>         0.1179
     37 H1          6.2095    1.3189    0.8510 H         1 <0>         0.1582
     38 H2          3.6134    4.8872   -1.3959 H         1 <0>         0.1596
     39 H3          7.9448    5.7720   -2.5878 H         1 <0>         0.0436
     40 H4          8.9067    2.2284    1.0316 H         1 <0>         0.4603
     41 H5         10.7347   -1.9079    0.6061 H         1 <0>         0.1695
     42 H6          7.9173    0.9682   -2.3003 H         1 <0>         0.1599
     43 H7          7.1132   -2.3139   -4.4746 H         1 <0>         0.0462
     44 H8          6.4942   -1.4048   -3.0544 H         1 <0>         0.0462
     45 H9          7.3713   -2.9542   -2.8162 H         1 <0>         0.0462
     46 H10         1.2583    4.1170   -1.6115 H         1 <0>         0.0415
     47 H11         1.9649    2.4965   -1.9298 H         1 <0>         0.0415
     48 H12        -0.4554    3.0800   -0.1359 H         1 <0>         0.0698
     49 H13        -0.5193    2.3813   -1.7895 H         1 <0>         0.0698
     50 H14         0.8117    1.1163    0.6449 H         1 <0>         0.0517
     51 H15        -0.7675    0.6496   -0.0727 H         1 <0>         0.0517
     52 H16        -0.8548   -0.8189   -1.8159 H         1 <0>         0.0767
     53 H17        -0.3412    0.5677   -2.8358 H         1 <0>         0.0767
     54 H18         0.0128   -1.6303   -3.9695 H         1 <0>         0.1111
     55 H19         1.5535   -0.7440   -3.7103 H         1 <0>         0.1111
     56 H20         2.5178   -2.8408   -0.8399 H         1 <0>         0.1111
     57 H21         3.0317   -1.4548   -1.8605 H         1 <0>         0.1111
     58 H22         2.1742   -0.6543    0.2911 H         1 <0>         0.0767
     59 H23         0.6334   -1.5415    0.0353 H         1 <0>         0.0767
     60 H24         2.3409   -4.1922   -2.8176 H         1 <0>         0.1060
     61 H25         2.7756   -2.8146   -3.8852 H         1 <0>         0.1060
     62 H26         1.2353   -3.7014   -4.1456 H         1 <0>         0.1060
     63 H27         2.9722    0.6605    3.1347 H         1 <0>         0.0411
     64 H28         2.8862    2.4144    2.7564 H         1 <0>         0.0411
     65 H29         4.4724    1.6482    3.1076 H         1 <0>         0.0411
     66 H30         0.4254   -2.9639   -2.0201 H         1 <0>         0.4454
@<TRIPOS>BOND
     1    1    6 ar
     2    1    2 ar
     3    1   37 1
     4    2    3 ar
     5    2   35 1
     6    3    4 ar
     7    3   24 1
     8    4    5 ar
     9    4   38 1
    10    5   10 ar
    11    5    6 ar
    12    6    7 ar
    13    7    8 ar
    14    7   13 1
    15    8    9 ar
    16    8   11 1
    17    9   10 ar
    18    9   39 1
    19   11   12 3
    20   13   14 1
    21   13   40 1
    22   14   19 ar
    23   14   15 ar
    24   15   16 ar
    25   15   23 1
    26   16   17 ar
    27   16   41 1
    28   17   18 ar
    29   17   22 1
    30   18   19 ar
    31   18   20 1
    32   19   42 1
    33   20   21 1
    34   21   43 1
    35   21   44 1
    36   21   45 1
    37   24   25 1
    38   25   26 1
    39   25   46 1
    40   25   47 1
    41   26   27 1
    42   26   48 1
    43   26   49 1
    44   27   28 1
    45   27   50 1
    46   27   51 1
    47   28   33 1
    48   28   29 1
    49   29   30 1
    50   29   52 1
    51   29   53 1
    52   30   31 1
    53   30   54 1
    54   30   55 1
    55   31   32 1
    56   31   34 1
    57   31   66 1
    58   32   33 1
    59   32   56 1
    60   32   57 1
    61   33   58 1
    62   33   59 1
    63   34   60 1
    64   34   61 1
    65   34   62 1
    66   35   36 1
    67   36   63 1
    68   36   64 1
    69   36   65 1
@<TRIPOS>MOLECULE
4-(2,4-dichloro-5-methoxy-anilino)-6-methoxy-7-[3-(4-methylpiperazin-1-ium-1-yl)propoxy]quinoline-3-carbonitrile
   66    69     0     0     0
SMALL
USER_CHARGES

@<TRIPOS>ATOM
      1 C1          5.6596    2.1116    0.3482 C.ar      1 <0>        -0.0855
      2 C2          4.2762    2.1505    0.4965 C.ar      1 <0>         0.0715
      3 C3          3.5468    3.1512   -0.1335 C.ar      1 <0>         0.1246
      4 C4          4.2021    4.1102   -0.9099 C.ar      1 <0>        -0.2643
      5 C5          5.5843    4.0953   -1.0751 C.ar      1 <0>         0.4629
      6 C6          6.3184    3.0763   -0.4327 C.ar      1 <0>        -0.2043
      7 C7          7.7099    3.0608   -0.5989 C.ar      1 <0>         0.2984
      8 C8          8.3307    4.0277   -1.3765 C.ar      1 <0>        -0.2211
      9 C9          7.5291    4.9845   -1.9653 C.ar      1 <0>         0.4961
     10 N1          6.1841    5.0350   -1.8303 N.ar      1 <0>        -0.7029
     11 C10         9.7450    4.0615   -1.5824 C.1       1 <0>         0.2437
     12 N2         10.8938    4.0889   -1.7497 N.1       1 <0>        -0.3583
     13 N3          8.5017    2.0609    0.0227 N.pl3     1 <0>        -0.6541
     14 C11         8.9227    0.7909   -0.3984 C.ar      1 <0>         0.1230
     15 C12         9.7144   -0.0179    0.4170 C.ar      1 <0>         0.0070
     16 C13        10.1175   -1.2764   -0.0296 C.ar      1 <0>        -0.1030
     17 C14         9.7291   -1.7260   -1.2916 C.ar      1 <0>         0.0191
     18 C15         8.9375   -0.9172   -2.1070 C.ar      1 <0>         0.1154
     19 C16         8.5344    0.3413   -1.6604 C.ar      1 <0>        -0.1273
     20 O1          8.5432   -1.3307   -3.3447 O.3       1 <0>        -0.3353
     21 C17         7.3100   -2.0415   -3.4272 C.3       1 <0>         0.1139
     22 Cl1        10.2412   -3.2866   -1.8188 Cl        1 <0>        -0.0427
     23 Cl2        10.2169    0.5004    1.9867 Cl        1 <0>        -0.0700
     24 O2          2.1845    3.2092   -0.0018 O.3       1 <0>        -0.3136
     25 C18         1.4214    3.1112   -1.1971 C.3       1 <0>         0.1300
     26 C19         0.0813    2.4629   -0.8715 C.3       1 <0>        -0.1205
     27 C20         0.2286    1.0645   -0.2864 C.3       1 <0>         0.1051
     28 N4          0.9127    0.1466   -1.1951 N.4       1 <0>        -0.6844
     29 C21         0.0085   -0.3024   -2.2609 C.3       1 <0>         0.1076
     30 C22         0.7238   -1.2674   -3.2127 C.3       1 <0>         0.1517
     31 N5          1.2632   -2.4194   -2.4801 N.3       1 <0>        -0.7462
     32 C23         2.1683   -1.9706   -1.4149 C.3       1 <0>         0.1517
     33 C24         1.4542   -1.0049   -0.4630 C.3       1 <0>         0.1076
     34 C25         1.9460   -3.3388   -3.3883 C.3       1 <0>         0.1558
     35 O3          3.6529    1.2086    1.2565 O.3       1 <0>        -0.3236
     36 C26         3.4864    1.4996    2.6432 C.3       1 <0>         0.1142
     37 H1          6.2095    1.3189    0.8510 H         1 <0>         0.1514
     38 H2          3.6134    4.8872   -1.3959 H         1 <0>         0.1530
     39 H3          7.9448    5.7720   -2.5878 H         1 <0>         0.0411
     40 H4          8.9067    2.2284    1.0316 H         1 <0>         0.4519
     41 H5         10.7347   -1.9079    0.6061 H         1 <0>         0.1713
     42 H6          7.9173    0.9682   -2.3003 H         1 <0>         0.1638
     43 H7          7.1132   -2.3139   -4.4746 H         1 <0>         0.0503
     44 H8          6.4942   -1.4048   -3.0544 H         1 <0>         0.0503
     45 H9          7.3713   -2.9542   -2.8162 H         1 <0>         0.0503
     46 H10         1.2583    4.1170   -1.6115 H         1 <0>         0.0571
     47 H11         1.9649    2.4965   -1.9298 H         1 <0>         0.0571
     48 H12        -0.4554    3.0800   -0.1359 H         1 <0>         0.0811
     49 H13        -0.5193    2.3813   -1.7895 H         1 <0>         0.0811
     50 H14         0.8117    1.1163    0.6449 H         1 <0>         0.1045
     51 H15        -0.7675    0.6496   -0.0727 H         1 <0>         0.1045
     52 H16        -0.8548   -0.8189   -1.8159 H         1 <0>         0.1083
     53 H17        -0.3412    0.5677   -2.8358 H         1 <0>         0.1083
     54 H18         0.0128   -1.6303   -3.9695 H         1 <0>         0.0741
     55 H19         1.5535   -0.7440   -3.7103 H         1 <0>         0.0741
     56 H20         2.5178   -2.8408   -0.8399 H         1 <0>         0.0741
     57 H21         3.0317   -1.4548   -1.8605 H         1 <0>         0.0741
     58 H22         2.1742   -0.6543    0.2911 H         1 <0>         0.1083
     59 H23         0.6334   -1.5415    0.0353 H         1 <0>         0.1083
     60 H24         2.3409   -4.1922   -2.8176 H         1 <0>         0.0580
     61 H25         2.7756   -2.8146   -3.8852 H         1 <0>         0.0580
     62 H26         1.2353   -3.7014   -4.1456 H         1 <0>         0.0580
     63 H27         2.9722    0.6605    3.1347 H         1 <0>         0.0450
     64 H28         2.8862    2.4144    2.7564 H         1 <0>         0.0450
     65 H29         4.4724    1.6482    3.1076 H         1 <0>         0.0450
     66 H30         1.7498    0.6924   -1.6549 H         1 <0>         0.4498
@<TRIPOS>BOND
     1    1    6 ar
     2    1    2 ar
     3    1   37 1
     4    2    3 ar
     5    2   35 1
     6    3    4 ar
     7    3   24 1
     8    4    5 ar
     9    4   38 1
    10    5   10 ar
    11    5    6 ar
    12    6    7 ar
    13    7    8 ar
    14    7   13 1
    15    8    9 ar
    16    8   11 1
    17    9   10 ar
    18    9   39 1
    19   11   12 3
    20   13   14 1
    21   13   40 1
    22   14   19 ar
    23   14   15 ar
    24   15   16 ar
    25   15   23 1
    26   16   17 ar
    27   16   41 1
    28   17   18 ar
    29   17   22 1
    30   18   19 ar
    31   18   20 1
    32   19   42 1
    33   20   21 1
    34   21   43 1
    35   21   44 1
    36   21   45 1
    37   24   25 1
    38   25   26 1
    39   25   46 1
    40   25   47 1
    41   26   27 1
    42   26   48 1
    43   26   49 1
    44   27   28 1
    45   27   50 1
    46   27   51 1
    47   28   33 1
    48   28   29 1
    49   28   66 1
    50   29   30 1
    51   29   52 1
    52   29   53 1
    53   30   31 1
    54   30   54 1
    55   30   55 1
    56   31   32 1
    57   31   34 1
    58   32   33 1
    59   32   56 1
    60   32   57 1
    61   33   58 1
    62   33   59 1
    63   34   60 1
    64   34   61 1
    65   34   62 1
    66   35   36 1
    67   36   63 1
    68   36   64 1
    69   36   65 1
@<TRIPOS>MOLECULE
4-(2,4-dichloro-5-methoxy-anilino)-6-methoxy-7-[3-(4-methylpiperazin-1-yl)propoxy]quinoline-3-carbonitrile
   65    68     0     0     0
SMALL
USER_CHARGES

@<TRIPOS>ATOM
      1 C1          5.6596    2.1116    0.3482 C.ar      1 <0>        -0.1126
      2 C2          4.2762    2.1505    0.4965 C.ar      1 <0>         0.0874
      3 C3          3.5468    3.1512   -0.1335 C.ar      1 <0>         0.1222
      4 C4          4.2021    4.1102   -0.9099 C.ar      1 <0>        -0.2145
      5 C5          5.5843    4.0953   -1.0751 C.ar      1 <0>         0.4306
      6 C6          6.3184    3.0763   -0.4327 C.ar      1 <0>        -0.1750
      7 C7          7.7099    3.0608   -0.5989 C.ar      1 <0>         0.2632
      8 C8          8.3307    4.0277   -1.3765 C.ar      1 <0>        -0.1715
      9 C9          7.5291    4.9845   -1.9653 C.ar      1 <0>         0.4611
     10 N1          6.1841    5.0350   -1.8303 N.ar      1 <0>        -0.6632
     11 C10         9.7450    4.0615   -1.5824 C.1       1 <0>         0.2440
     12 N2         10.8938    4.0889   -1.7497 N.1       1 <0>        -0.3588
     13 N3          8.5017    2.0609    0.0227 N.pl3     1 <0>        -0.6909
     14 C11         8.9227    0.7909   -0.3984 C.ar      1 <0>         0.1941
     15 C12         9.7144   -0.0179    0.4170 C.ar      1 <0>        -0.0281
     16 C13        10.1175   -1.2764   -0.0296 C.ar      1 <0>        -0.0841
     17 C14         9.7291   -1.7260   -1.2916 C.ar      1 <0>        -0.0182
     18 C15         8.9375   -0.9172   -2.1070 C.ar      1 <0>         0.1330
     19 C16         8.5344    0.3413   -1.6604 C.ar      1 <0>        -0.1798
     20 O1          8.5432   -1.3307   -3.3447 O.3       1 <0>        -0.3367
     21 C17         7.3100   -2.0415   -3.4272 C.3       1 <0>         0.1152
     22 Cl1        10.2412   -3.2866   -1.8188 Cl        1 <0>        -0.0644
     23 Cl2        10.2169    0.5004    1.9867 Cl        1 <0>        -0.0751
     24 O2          2.1845    3.2092   -0.0018 O.3       1 <0>        -0.3345
     25 C18         1.4214    3.1112   -1.1971 C.3       1 <0>         0.1327
     26 C19         0.0813    2.4629   -0.8715 C.3       1 <0>        -0.0885
     27 C20         0.2286    1.0645   -0.2864 C.3       1 <0>         0.1804
     28 N4          0.9127    0.1466   -1.1951 N.3       1 <0>        -0.7397
     29 C21         0.0085   -0.3024   -2.2609 C.3       1 <0>         0.1725
     30 C22         0.7238   -1.2674   -3.2127 C.3       1 <0>         0.1670
     31 N5          1.2632   -2.4194   -2.4801 N.3       1 <0>        -0.7321
     32 C23         2.1683   -1.9706   -1.4149 C.3       1 <0>         0.1670
     33 C24         1.4542   -1.0049   -0.4630 C.3       1 <0>         0.1725
     34 C25         1.9460   -3.3388   -3.3883 C.3       1 <0>         0.1576
     35 O3          3.6529    1.2086    1.2565 O.3       1 <0>        -0.3320
     36 C26         3.4864    1.4996    2.6432 C.3       1 <0>         0.1161
     37 H1          6.2095    1.3189    0.8510 H         1 <0>         0.1529
     38 H2          3.6134    4.8872   -1.3959 H         1 <0>         0.1656
     39 H3          7.9448    5.7720   -2.5878 H         1 <0>         0.0373
     40 H4          8.9067    2.2284    1.0316 H         1 <0>         0.4558
     41 H5         10.7347   -1.9079    0.6061 H         1 <0>         0.1658
     42 H6          7.9173    0.9682   -2.3003 H         1 <0>         0.1571
     43 H7          7.1132   -2.3139   -4.4746 H         1 <0>         0.0471
     44 H8          6.4942   -1.4048   -3.0544 H         1 <0>         0.0471
     45 H9          7.3713   -2.9542   -2.8162 H         1 <0>         0.0471
     46 H10         1.2583    4.1170   -1.6115 H         1 <0>         0.0405
     47 H11         1.9649    2.4965   -1.9298 H         1 <0>         0.0405
     48 H12        -0.4554    3.0800   -0.1359 H         1 <0>         0.0654
     49 H13        -0.5193    2.3813   -1.7895 H         1 <0>         0.0654
     50 H14         0.8117    1.1163    0.6449 H         1 <0>         0.0320
     51 H15        -0.7675    0.6496   -0.0727 H         1 <0>         0.0320
     52 H16        -0.8548   -0.8189   -1.8159 H         1 <0>         0.0366
     53 H17        -0.3412    0.5677   -2.8358 H         1 <0>         0.0366
     54 H18         0.0128   -1.6303   -3.9695 H         1 <0>         0.0376
     55 H19         1.5535   -0.7440   -3.7103 H         1 <0>         0.0376
     56 H20         2.5178   -2.8408   -0.8399 H         1 <0>         0.0376
     57 H21         3.0317   -1.4548   -1.8605 H         1 <0>         0.0376
     58 H22         2.1742   -0.6543    0.2911 H         1 <0>         0.0366
     59 H23         0.6334   -1.5415    0.0353 H         1 <0>         0.0366
     60 H24         2.3409   -4.1922   -2.8176 H         1 <0>         0.0322
     61 H25         2.7756   -2.8146   -3.8852 H         1 <0>         0.0322
     62 H26         1.2353   -3.7014   -4.1456 H         1 <0>         0.0322
     63 H27         2.9722    0.6605    3.1347 H         1 <0>         0.0459
     64 H28         2.8862    2.4144    2.7564 H         1 <0>         0.0459
     65 H29         4.4724    1.6482    3.1076 H         1 <0>         0.0459
@<TRIPOS>BOND
     1    1    6 ar
     2    1    2 ar
     3    1   37 1
     4    2    3 ar
     5    2   35 1
     6    3    4 ar
     7    3   24 1
     8    4    5 ar
     9    4   38 1
    10    5   10 ar
    11    5    6 ar
    12    6    7 ar
    13    7    8 ar
    14    7   13 1
    15    8    9 ar
    16    8   11 1
    17    9   10 ar
    18    9   39 1
    19   11   12 3
    20   13   14 1
    21   13   40 1
    22   14   19 ar
    23   14   15 ar
    24   15   16 ar
    25   15   23 1
    26   16   17 ar
    27   16   41 1
    28   17   18 ar
    29   17   22 1
    30   18   19 ar
    31   18   20 1
    32   19   42 1
    33   20   21 1
    34   21   43 1
    35   21   44 1
    36   21   45 1
    37   24   25 1
    38   25   26 1
    39   25   46 1
    40   25   47 1
    41   26   27 1
    42   26   48 1
    43   26   49 1
    44   27   28 1
    45   27   50 1
    46   27   51 1
    47   28   33 1
    48   28   29 1
    49   29   30 1
    50   29   52 1
    51   29   53 1
    52   30   31 1
    53   30   54 1
    54   30   55 1
    55   31   32 1
    56   31   34 1
    57   32   33 1
    58   32   56 1
    59   32   57 1
    60   33   58 1
    61   33   59 1
    62   34   60 1
    63   34   61 1
    64   34   62 1
    65   35   36 1
    66   36   63 1
    67   36   64 1
    68   36   65 1
@<TRIPOS>MOLECULE
[3-cyano-6-methoxy-7-[3-(4-methylpiperazin-4-ium-1-yl)propoxy]-4-quinolyl]-(2,4-dichloro-5-methoxy-phenyl)azanide
   65    68     0     0     0
SMALL
USER_CHARGES

@<TRIPOS>ATOM
      1 C1          5.6596    2.1116    0.3482 C.ar      1 <0>        -0.0423
      2 C2          4.2762    2.1505    0.4965 C.ar      1 <0>        -0.0009
      3 C3          3.5468    3.1512   -0.1335 C.ar      1 <0>         0.0910
      4 C4          4.2021    4.1102   -0.9099 C.ar      1 <0>        -0.2481
      5 C5          5.5843    4.0953   -1.0751 C.ar      1 <0>         0.4587
      6 C6          6.3184    3.0763   -0.4327 C.ar      1 <0>        -0.1947
      7 C7          7.7099    3.0608   -0.5989 C.ar      1 <0>         0.3027
      8 C8          8.3307    4.0277   -1.3765 C.ar      1 <0>        -0.3445
      9 C9          7.5291    4.9845   -1.9653 C.ar      1 <0>         0.5091
     10 N1          6.1841    5.0350   -1.8303 N.ar      1 <0>        -0.7840
     11 C10         9.7450    4.0615   -1.5824 C.1       1 <0>         0.2831
     12 N2         10.8938    4.0889   -1.7497 N.1       1 <0>        -0.4435
     13 N3          8.5017    2.0609    0.0227 N.2       1 <0>        -0.5102
     14 C11         8.9227    0.7909   -0.3984 C.ar      1 <0>         0.2333
     15 C12         9.7144   -0.0179    0.4170 C.ar      1 <0>        -0.0398
     16 C13        10.1175   -1.2764   -0.0296 C.ar      1 <0>        -0.0797
     17 C14         9.7291   -1.7260   -1.2916 C.ar      1 <0>        -0.0588
     18 C15         8.9375   -0.9172   -2.1070 C.ar      1 <0>         0.1346
     19 C16         8.5344    0.3413   -1.6604 C.ar      1 <0>        -0.2367
     20 O1          8.5432   -1.3307   -3.3447 O.3       1 <0>        -0.3439
     21 C17         7.3100   -2.0415   -3.4272 C.3       1 <0>         0.1190
     22 Cl1        10.2412   -3.2866   -1.8188 Cl        1 <0>        -0.1170
     23 Cl2        10.2169    0.5004    1.9867 Cl        1 <0>        -0.1144
     24 O2          2.1845    3.2092   -0.0018 O.3       1 <0>        -0.3313
     25 C18         1.4214    3.1112   -1.1971 C.3       1 <0>         0.1282
     26 C19         0.0813    2.4629   -0.8715 C.3       1 <0>        -0.0923
     27 C20         0.2286    1.0645   -0.2864 C.3       1 <0>         0.1686
     28 N4          0.9127    0.1466   -1.1951 N.3       1 <0>        -0.7368
     29 C21         0.0085   -0.3024   -2.2609 C.3       1 <0>         0.1441
     30 C22         0.7238   -1.2674   -3.2127 C.3       1 <0>         0.1066
     31 N5          1.2632   -2.4194   -2.4801 N.4       1 <0>        -0.6837
     32 C23         2.1683   -1.9706   -1.4149 C.3       1 <0>         0.1066
     33 C24         1.4542   -1.0049   -0.4630 C.3       1 <0>         0.1441
     34 C25         1.9460   -3.3388   -3.3883 C.3       1 <0>         0.0840
     35 O3          3.6529    1.2086    1.2565 O.3       1 <0>        -0.3264
     36 C26         3.4864    1.4996    2.6432 C.3       1 <0>         0.1206
     37 H1          6.2095    1.3189    0.8510 H         1 <0>         0.1718
     38 H2          3.6134    4.8872   -1.3959 H         1 <0>         0.1383
     39 H3          7.9448    5.7720   -2.5878 H         1 <0>         0.0029
     40 H4         10.7347   -1.9079    0.6061 H         1 <0>         0.1419
     41 H5          7.9173    0.9682   -2.3003 H         1 <0>         0.1461
     42 H6          7.1132   -2.3139   -4.4746 H         1 <0>         0.0364
     43 H7          6.4942   -1.4048   -3.0544 H         1 <0>         0.0364
     44 H8          7.3713   -2.9542   -2.8162 H         1 <0>         0.0364
     45 H9          1.2583    4.1170   -1.6115 H         1 <0>         0.0410
     46 H10         1.9649    2.4965   -1.9298 H         1 <0>         0.0410
     47 H11        -0.4554    3.0800   -0.1359 H         1 <0>         0.0645
     48 H12        -0.5193    2.3813   -1.7895 H         1 <0>         0.0645
     49 H13         0.8117    1.1163    0.6449 H         1 <0>         0.0513
     50 H14        -0.7675    0.6496   -0.0727 H         1 <0>         0.0513
     51 H15        -0.8548   -0.8189   -1.8159 H         1 <0>         0.0773
     52 H16        -0.3412    0.5677   -2.8358 H         1 <0>         0.0773
     53 H17         0.0128   -1.6303   -3.9695 H         1 <0>         0.1075
     54 H18         1.5535   -0.7440   -3.7103 H         1 <0>         0.1075
     55 H19         2.5178   -2.8408   -0.8399 H         1 <0>         0.1075
     56 H20         3.0317   -1.4548   -1.8605 H         1 <0>         0.1075
     57 H21         2.1742   -0.6543    0.2911 H         1 <0>         0.0773
     58 H22         0.6334   -1.5415    0.0353 H         1 <0>         0.0773
     59 H23         2.3409   -4.1922   -2.8176 H         1 <0>         0.1029
     60 H24         2.7756   -2.8146   -3.8852 H         1 <0>         0.1029
     61 H25         1.2353   -3.7014   -4.1456 H         1 <0>         0.1029
     62 H26         2.9722    0.6605    3.1347 H         1 <0>         0.0262
     63 H27         2.8862    2.4144    2.7564 H         1 <0>         0.0262
     64 H28         4.4724    1.6482    3.1076 H         1 <0>         0.0262
     65 H29         0.4254   -2.9639   -2.0201 H         1 <0>         0.4446
@<TRIPOS>BOND
     1    1    6 ar
     2    1    2 ar
     3    1   37 1
     4    2    3 ar
     5    2   35 1
     6    3    4 ar
     7    3   24 1
     8    4    5 ar
     9    4   38 1
    10    5   10 ar
    11    5    6 ar
    12    6    7 ar
    13    7    8 ar
    14    7   13 1
    15    8    9 ar
    16    8   11 1
    17    9   10 ar
    18    9   39 1
    19   11   12 3
    20   13   14 1
    21   14   19 ar
    22   14   15 ar
    23   15   16 ar
    24   15   23 1
    25   16   17 ar
    26   16   40 1
    27   17   18 ar
    28   17   22 1
    29   18   19 ar
    30   18   20 1
    31   19   41 1
    32   20   21 1
    33   21   42 1
    34   21   43 1
    35   21   44 1
    36   24   25 1
    37   25   26 1
    38   25   45 1
    39   25   46 1
    40   26   27 1
    41   26   47 1
    42   26   48 1
    43   27   28 1
    44   27   49 1
    45   27   50 1
    46   28   33 1
    47   28   29 1
    48   29   30 1
    49   29   51 1
    50   29   52 1
    51   30   31 1
    52   30   53 1
    53   30   54 1
    54   31   32 1
    55   31   34 1
    56   31   65 1
    57   32   33 1
    58   32   55 1
    59   32   56 1
    60   33   57 1
    61   33   58 1
    62   34   59 1
    63   34   60 1
    64   34   61 1
    65   35   36 1
    66   36   62 1
    67   36   63 1
    68   36   64 1
